# generated using pymatgen
data_Li135Fe144P143O575
_symmetry_space_group_name_H-M   'P 1'
_cell_length_a   10.45864821
_cell_length_b   12.15013700
_cell_length_c   9.54605949
_cell_angle_alpha   89.99946297
_cell_angle_beta   90.00100722
_cell_angle_gamma   89.99784172
_symmetry_Int_Tables_number   1
_chemical_formula_structural   Li135Fe144P143O575
_chemical_formula_sum   'Li135 Fe144 P143 O575'
_cell_volume   1213.05604436
_cell_formula_units_Z   1
loop_
 _symmetry_equiv_pos_site_id
 _symmetry_equiv_pos_as_xyz
  1  'x, y, z'
loop_
 _atom_site_type_symbol
 _atom_site_label
 _atom_site_symmetry_multiplicity
 _atom_site_fract_x
 _atom_site_fract_y
 _atom_site_fract_z
 _atom_site_occupancy
  Li  Li0  1  -0.00042955  0.49987847  0.50013318  1
  Li  Li1  1  0.49964043  0.25118065  0.24713404  1
  Li  Li2  1  0.50035983  0.74881912  0.25286672  1
  Li  Li3  1  0.00042545  0.00065775  0.49958336  1
  Li  Li4  1  -0.00042599  0.49934325  0.00041552  1
  Li  Li5  1  0.00047325  0.00101369  -0.00087201  1
  Li  Li6  1  -0.00047419  0.49898580  0.50087153  1
  Li  Li7  1  0.50000065  0.24999974  0.25000063  1
  Li  Li8  1  0.49999996  0.74999969  0.25000049  1
  Li  Li9  1  0.49999982  0.75000043  0.74999990  1
  Li  Li10  1  0.50036010  0.00118111  0.25286682  1
  Li  Li11  1  0.50088783  0.00862840  0.75446348  1
  Li  Li12  1  0.49963947  0.49881827  0.24713254  1
  Li  Li13  1  0.49911124  0.49137128  0.74553689  1
  Li  Li14  1  0.00042815  0.24987877  -0.00013341  1
  Li  Li15  1  -0.00042878  0.25012063  0.50013175  1
  Li  Li16  1  0.00009757  0.75005990  -0.00028162  1
  Li  Li17  1  -0.00009756  0.74993983  0.50028091  1
  Li  Li18  1  0.00049344  0.00073181  -0.00102085  1
  Li  Li19  1  0.50088557  0.74137363  0.75446033  1
  Li  Li20  1  0.49999999  0.00000010  0.24999964  1
  Li  Li21  1  0.50000067  0.00000058  0.75000073  1
  Li  Li22  1  0.49999909  0.49999909  0.24999937  1
  Li  Li23  1  0.49911458  0.25862624  0.74554079  1
  Li  Li24  1  0.00058882  0.00029650  0.49981164  1
  Li  Li25  1  -0.00080695  0.49986139  -0.00013128  1
  Li  Li26  1  -0.00053157  0.49911868  0.50125592  1
  Li  Li27  1  0.49988406  0.24909316  0.24886964  1
  Li  Li28  1  0.49978541  0.75004610  0.25099447  1
  Li  Li29  1  -0.00042617  0.25065713  0.00041626  1
  Li  Li30  1  -0.00047351  0.25101292  0.50087036  1
  Li  Li31  1  0.00047353  0.74898662  -0.00087184  1
  Li  Li32  1  0.00042636  0.74934242  0.49958326  1
  Li  Li33  1  0.49972638  0.00002017  0.25163760  1
  Li  Li34  1  0.50116559  0.00639433  0.75421691  1
  Li  Li35  1  0.49956806  0.50108035  0.24860090  1
  Li  Li36  1  0.52264497  0.31315569  0.72295552  1
  Li  Li37  1  -0.00062537  0.24963043  -0.00052686  1
  Li  Li38  1  -0.00011284  0.25050435  0.50125997  1
  Li  Li39  1  0.50100298  0.74514098  0.75355692  1
  Li  Li40  1  0.50068966  0.00092876  0.25377548  1
  Li  Li41  1  0.50158916  0.00901719  0.75566408  1
  Li  Li42  1  0.49904528  0.49898511  0.24696684  1
  Li  Li43  1  0.50791620  0.46445807  0.73169141  1
  Li  Li44  1  0.00020693  0.24930250  -0.00058768  1
  Li  Li45  1  0.00001717  0.24988432  0.50059888  1
  Li  Li46  1  0.00050481  0.75014794  -0.00040514  1
  Li  Li47  1  0.00013753  0.74990327  0.50037990  1
  Li  Li48  1  0.00031270  0.25014537  0.50119896  1
  Li  Li49  1  0.00038247  0.74987822  -0.00095647  1
  Li  Li50  1  0.00025596  0.75007360  0.50022825  1
  Li  Li51  1  0.00062120  -0.00018831  -0.00061558  1
  Li  Li52  1  0.00016563  -0.00001976  0.50044250  1
  Li  Li53  1  0.00010868  0.50102483  -0.00088456  1
  Li  Li54  1  0.00034189  0.50027267  0.50080474  1
  Li  Li55  1  0.49901262  0.25050940  0.24763331  1
  Li  Li56  1  0.50052312  0.74934645  0.25342670  1
  Li  Li57  1  0.50137959  0.74160713  0.75504075  1
  Li  Li58  1  0.00042915  0.50012188  -0.00013417  1
  Li  Li59  1  0.00005124  0.50111632  -0.00097675  1
  Li  Li60  1  0.00067938  0.50025911  0.50093627  1
  Li  Li61  1  0.49897701  0.25003886  0.24797832  1
  Li  Li62  1  0.50029278  0.74948409  0.25305467  1
  Li  Li63  1  0.50122121  0.74216769  0.75463814  1
  Li  Li64  1  0.49977953  0.00017926  0.25219975  1
  Li  Li65  1  0.50112726  0.00694823  0.75436766  1
  Li  Li66  1  0.49913041  0.50077442  0.24826266  1
  Li  Li67  1  0.53948016  0.34428952  0.71307828  1
  Li  Li68  1  -0.00031868  0.24923835  -0.00077578  1
  Li  Li69  1  0.50068823  0.74907263  0.25377365  1
  Li  Li70  1  0.50158630  0.74098654  0.75565925  1
  Li  Li71  1  0.49978050  0.74982000  0.25220018  1
  Li  Li72  1  0.50112507  0.74305438  0.75436295  1
  Li  Li73  1  0.50029234  0.00051582  0.25305521  1
  Li  Li74  1  0.50122347  0.00783498  0.75464274  1
  Li  Li75  1  0.49897602  0.49996007  0.24797654  1
  Li  Li76  1  0.53948088  0.40570735  0.71307571  1
  Li  Li77  1  0.00005064  0.24888449  -0.00097655  1
  Li  Li78  1  0.00067905  0.24974012  0.50093500  1
  Li  Li79  1  0.00056032  0.75012917  -0.00079099  1
  Li  Li80  1  0.00015387  0.75007280  0.50045446  1
  Li  Li81  1  0.49978603  -0.00004606  0.25099440  1
  Li  Li82  1  0.50100488  0.00486187  0.75356011  1
  Li  Li83  1  0.49988382  0.50090634  0.24886843  1
  Li  Li84  1  0.50791674  0.28553881  0.73169542  1
  Li  Li85  1  -0.00080776  0.25013900  -0.00013037  1
  Li  Li86  1  -0.00053133  0.25088065  0.50125518  1
  Li  Li87  1  0.00049416  0.74926936  -0.00101921  1
  Li  Li88  1  0.00058970  0.74970360  0.49981112  1
  Li  Li89  1  0.00009705  -0.00005919  -0.00028237  1
  Li  Li90  1  -0.00009761  0.00006095  0.50028031  1
  Li  Li91  1  0.54827081  0.37499955  0.70790755  1
  Li  Li92  1  -0.00005668  0.24900173  -0.00095049  1
  Li  Li93  1  0.00063861  0.24990155  0.50111550  1
  Li  Li94  1  0.00046190  0.75001528  -0.00092266  1
  Li  Li95  1  0.00015878  0.75008301  0.50039430  1
  Li  Li96  1  0.00055994  -0.00012912  -0.00079172  1
  Li  Li97  1  0.00015324  -0.00007360  0.50045493  1
  Li  Li98  1  0.00033112  0.74965735  -0.00097222  1
  Li  Li99  1  0.00039270  0.74996475  0.50001054  1
  Li  Li100  1  0.00050371  -0.00014741  -0.00040599  1
  Li  Li101  1  0.00013675  0.00009649  0.50038022  1
  Li  Li102  1  0.00020708  0.50069793  -0.00058790  1
  Li  Li103  1  0.00001659  0.50011459  0.50060002  1
  Li  Li104  1  0.49904618  0.25101303  0.24696929  1
  Li  Li105  1  0.49972567  0.74997981  0.25163762  1
  Li  Li106  1  0.50116347  0.74360859  0.75421290  1
  Li  Li107  1  0.50052428  0.00065462  0.25342805  1
  Li  Li108  1  0.50138198  0.00839603  0.75504508  1
  Li  Li109  1  0.49901175  0.49948901  0.24763121  1
  Li  Li110  1  0.00038253  0.00012216  -0.00095685  1
  Li  Li111  1  0.00025550  -0.00007437  0.50022893  1
  Li  Li112  1  -0.00031792  0.50076245  -0.00077580  1
  Li  Li113  1  0.00031354  0.49985395  0.50120041  1
  Li  Li114  1  0.49913096  0.24922495  0.24826395  1
  Li  Li115  1  0.00046188  -0.00001486  -0.00092304  1
  Li  Li116  1  0.00015892  -0.00008352  0.50039495  1
  Li  Li117  1  -0.00005624  0.50099866  -0.00095031  1
  Li  Li118  1  0.00063915  0.50009780  0.50111682  1
  Li  Li119  1  0.49888380  0.24969214  0.24808743  1
  Li  Li120  1  0.50001087  0.74959916  0.25264760  1
  Li  Li121  1  0.50118039  0.74266936  0.75439395  1
  Li  Li122  1  0.50001032  0.00040028  0.25264744  1
  Li  Li123  1  0.50118240  0.00733314  0.75439815  1
  Li  Li124  1  0.49888283  0.50030691  0.24808581  1
  Li  Li125  1  0.00033083  0.00034363  -0.00097345  1
  Li  Li126  1  0.52264441  0.43684113  0.72295143  1
  Li  Li127  1  0.00010818  0.24897575  -0.00088443  1
  Li  Li128  1  0.00034189  0.24972672  0.50080379  1
  Li  Li129  1  0.00062218  0.75018871  -0.00061453  1
  Li  Li130  1  0.00016680  0.75001915  0.50044146  1
  Li  Li131  1  0.00039173  0.00003480  0.50001142  1
  Li  Li132  1  -0.00062494  0.50037013  -0.00052714  1
  Li  Li133  1  -0.00011261  0.49949504  0.50126060  1
  Li  Li134  1  0.49956855  0.24891887  0.24860206  1
  Fe  Fe135  1  0.28261568  0.62356850  0.48538752  1
  Fe  Fe136  1  0.28252779  0.62390224  0.98439876  1
  Fe  Fe137  1  0.21806266  0.37487397  0.23465200  1
  Fe  Fe138  1  0.22226313  0.37328930  0.73791602  1
  Fe  Fe139  1  0.21818435  0.87526235  0.23474418  1
  Fe  Fe140  1  0.77773579  0.12671036  0.76208353  1
  Fe  Fe141  1  0.78181523  0.62473995  0.26525588  1
  Fe  Fe142  1  0.78180520  0.62473981  0.76484896  1
  Fe  Fe143  1  0.78193695  0.12512531  0.26534710  1
  Fe  Fe144  1  0.71522225  0.37403767  0.01234168  1
  Fe  Fe145  1  0.28388919  0.62262680  0.98305201  1
  Fe  Fe146  1  0.21734172  0.37483518  0.23276770  1
  Fe  Fe147  1  0.28187164  0.62365279  0.48543703  1
  Fe  Fe148  1  0.28414924  0.62250695  0.98289073  1
  Fe  Fe149  1  0.21708893  0.37474166  0.23206353  1
  Fe  Fe150  1  0.22056516  0.37388638  0.73955828  1
  Fe  Fe151  1  0.21850448  0.87489876  0.23425264  1
  Fe  Fe152  1  0.21833124  0.87489813  0.73507750  1
  Fe  Fe153  1  0.78153031  0.12327986  0.26609206  1
  Fe  Fe154  1  0.77809807  0.12636728  0.76319468  1
  Fe  Fe155  1  0.71611220  0.87440863  0.51778447  1
  Fe  Fe156  1  0.28348329  0.12531422  0.48726641  1
  Fe  Fe157  1  0.28372037  0.12673806  0.98329488  1
  Fe  Fe158  1  0.22073404  0.37328027  0.73902224  1
  Fe  Fe159  1  0.21841514  0.87487503  0.23434238  1
  Fe  Fe160  1  0.21836218  0.87497272  0.73509122  1
  Fe  Fe161  1  0.78152291  0.12348333  0.26611419  1
  Fe  Fe162  1  0.77792034  0.12629301  0.76238831  1
  Fe  Fe163  1  0.78179163  0.62556672  0.26665411  1
  Fe  Fe164  1  0.78060494  0.62433086  0.76523764  1
  Fe  Fe165  1  0.28187131  0.12634927  0.48543695  1
  Fe  Fe166  1  0.28414846  0.12749503  0.98289078  1
  Fe  Fe167  1  0.28348429  0.62468801  0.48726647  1
  Fe  Fe168  1  0.28372097  0.62326425  0.98329442  1
  Fe  Fe169  1  0.21708897  0.37525396  0.23206377  1
  Fe  Fe170  1  0.22056436  0.37610918  0.73955830  1
  Fe  Fe171  1  0.21850441  0.87509619  0.23425271  1
  Fe  Fe172  1  0.21833119  0.87509740  0.73507748  1
  Fe  Fe173  1  0.78189619  0.12481050  0.26641691  1
  Fe  Fe174  1  0.78160039  0.62607226  0.26668319  1
  Fe  Fe175  1  0.77961377  0.62408548  0.76520749  1
  Fe  Fe176  1  0.71660569  0.37437408  0.01756930  1
  Fe  Fe177  1  0.72057511  0.37181483  0.50830452  1
  Fe  Fe178  1  0.71743168  0.87515544  0.01456484  1
  Fe  Fe179  1  0.71578207  0.87449218  0.51819429  1
  Fe  Fe180  1  0.28273564  0.12523670  0.48703572  1
  Fe  Fe181  1  0.28382652  0.12693424  0.98317389  1
  Fe  Fe182  1  0.28173279  0.62426963  0.48599740  1
  Fe  Fe183  1  0.28401169  0.62275118  0.98309572  1
  Fe  Fe184  1  0.21806251  0.37512153  0.23465180  1
  Fe  Fe185  1  0.22226220  0.37670655  0.73791727  1
  Fe  Fe186  1  0.21818429  0.87473335  0.23474378  1
  Fe  Fe187  1  0.21819429  0.87473451  0.73515097  1
  Fe  Fe188  1  0.71665006  0.37383929  0.01656315  1
  Fe  Fe189  1  0.71873259  0.37044339  0.51164108  1
  Fe  Fe190  1  0.71758029  0.87539370  0.01460002  1
  Fe  Fe191  1  0.71586240  0.37202728  0.51691166  1
  Fe  Fe192  1  0.71738447  0.87643165  0.01461304  1
  Fe  Fe193  1  0.71747257  0.87609783  0.51560132  1
  Fe  Fe194  1  0.28477885  0.12596254  0.48765871  1
  Fe  Fe195  1  0.28413775  0.12797282  0.98309096  1
  Fe  Fe196  1  0.21819426  0.87526077  0.73515112  1
  Fe  Fe197  1  0.78164363  0.12393990  0.26610315  1
  Fe  Fe198  1  0.78144416  0.12554105  0.76519159  1
  Fe  Fe199  1  0.78164473  0.62606513  0.26610411  1
  Fe  Fe200  1  0.77791092  0.62361131  0.76210213  1
  Fe  Fe201  1  0.71588366  0.37627306  0.01460457  1
  Fe  Fe202  1  0.71712400  0.37955010  0.51436501  1
  Fe  Fe203  1  0.71764318  0.87433523  0.01471144  1
  Fe  Fe204  1  0.71647547  0.87512389  0.51715404  1
  Fe  Fe205  1  0.28227243  0.12672608  0.48526607  1
  Fe  Fe206  1  0.28388797  0.12737551  0.98305196  1
  Fe  Fe207  1  0.28423827  0.62440531  0.48735238  1
  Fe  Fe208  1  0.21721056  0.37487770  0.23171496  1
  Fe  Fe209  1  0.22104078  0.37454046  0.74031328  1
  Fe  Fe210  1  0.21851241  0.87496774  0.23406861  1
  Fe  Fe211  1  0.21833738  0.87492539  0.73507811  1
  Fe  Fe212  1  0.78149962  0.12346284  0.26636607  1
  Fe  Fe213  1  0.77870414  0.12632803  0.76450521  1
  Fe  Fe214  1  0.78150007  0.62653890  0.26636650  1
  Fe  Fe215  1  0.77870558  0.62367569  0.76450563  1
  Fe  Fe216  1  0.71632099  0.37499925  0.01772045  1
  Fe  Fe217  1  0.72137986  0.37499995  0.50648976  1
  Fe  Fe218  1  0.78193728  0.62487978  0.26534851  1
  Fe  Fe219  1  0.77773760  0.62329426  0.76208291  1
  Fe  Fe220  1  0.71522148  0.37596043  0.01234042  1
  Fe  Fe221  1  0.71586226  0.37797081  0.51691195  1
  Fe  Fe222  1  0.71738425  0.87356495  0.01461311  1
  Fe  Fe223  1  0.71747267  0.87389963  0.51560161  1
  Fe  Fe224  1  0.28261558  0.12643455  0.48538738  1
  Fe  Fe225  1  0.28252661  0.12610054  0.98439926  1
  Fe  Fe226  1  0.28477952  0.62404010  0.48765937  1
  Fe  Fe227  1  0.28413853  0.62203007  0.98308981  1
  Fe  Fe228  1  0.77790857  0.12639804  0.76210339  1
  Fe  Fe229  1  0.78189708  0.62519509  0.26641866  1
  Fe  Fe230  1  0.78144599  0.62446604  0.76519240  1
  Fe  Fe231  1  0.71588351  0.37372445  0.01460544  1
  Fe  Fe232  1  0.71712462  0.37044772  0.51436480  1
  Fe  Fe233  1  0.71764316  0.87566138  0.01471118  1
  Fe  Fe234  1  0.71647532  0.87487379  0.51715470  1
  Fe  Fe235  1  0.28423720  0.12559706  0.48735261  1
  Fe  Fe236  1  0.28375746  0.12699155  0.98345589  1
  Fe  Fe237  1  0.28227260  0.62327637  0.48526604  1
  Fe  Fe238  1  0.28375853  0.62301132  0.98345568  1
  Fe  Fe239  1  0.21734103  0.37516056  0.23276819  1
  Fe  Fe240  1  0.22073304  0.37671496  0.73902292  1
  Fe  Fe241  1  0.21841506  0.87511982  0.23434234  1
  Fe  Fe242  1  0.21836133  0.87502280  0.73509160  1
  Fe  Fe243  1  0.78181522  0.12526615  0.26525456  1
  Fe  Fe244  1  0.78180503  0.12526526  0.76484823  1
  Fe  Fe245  1  0.28273667  0.62476599  0.48703641  1
  Fe  Fe246  1  0.28382746  0.62306809  0.98317381  1
  Fe  Fe247  1  0.21721044  0.37511796  0.23171534  1
  Fe  Fe248  1  0.22104054  0.37545529  0.74031296  1
  Fe  Fe249  1  0.21851213  0.87502673  0.23406856  1
  Fe  Fe250  1  0.21833721  0.87507006  0.73507822  1
  Fe  Fe251  1  0.78179108  0.12443964  0.26665350  1
  Fe  Fe252  1  0.78060326  0.12567561  0.76523705  1
  Fe  Fe253  1  0.78152351  0.62652163  0.26611500  1
  Fe  Fe254  1  0.77792230  0.62371293  0.76238777  1
  Fe  Fe255  1  0.71664983  0.37615895  0.01656273  1
  Fe  Fe256  1  0.71873197  0.37955500  0.51164138  1
  Fe  Fe257  1  0.71758041  0.87460254  0.01460032  1
  Fe  Fe258  1  0.71611243  0.87558964  0.51778420  1
  Fe  Fe259  1  0.71734739  0.87499859  0.01456812  1
  Fe  Fe260  1  0.71557345  0.87500009  0.51829159  1
  Fe  Fe261  1  0.28209052  0.12542312  0.48658376  1
  Fe  Fe262  1  0.28392212  0.12713307  0.98315251  1
  Fe  Fe263  1  0.28209174  0.62457927  0.48658415  1
  Fe  Fe264  1  0.28392310  0.62286892  0.98315264  1
  Fe  Fe265  1  0.21744218  0.37499761  0.23162822  1
  Fe  Fe266  1  0.22154776  0.37499768  0.74066042  1
  Fe  Fe267  1  0.21849317  0.87499728  0.23397243  1
  Fe  Fe268  1  0.21835769  0.87499790  0.73505758  1
  Fe  Fe269  1  0.78159964  0.12393170  0.26668172  1
  Fe  Fe270  1  0.77961208  0.12591952  0.76520633  1
  Fe  Fe271  1  0.78153124  0.62672379  0.26609323  1
  Fe  Fe272  1  0.77810015  0.62363817  0.76319555  1
  Fe  Fe273  1  0.71660582  0.37562440  0.01756942  1
  Fe  Fe274  1  0.72057489  0.37818446  0.50830483  1
  Fe  Fe275  1  0.71743186  0.87484047  0.01456462  1
  Fe  Fe276  1  0.71578223  0.87550663  0.51819441  1
  Fe  Fe277  1  0.28173196  0.12573298  0.48599645  1
  Fe  Fe278  1  0.28401052  0.12725090  0.98309606  1
  P  P279  1  0.09382768  0.12469793  0.20604967  1
  P  P280  1  0.09256679  0.12495067  0.70607257  1
  P  P281  1  0.09339231  0.62501453  0.20534878  1
  P  P282  1  0.09322348  0.62456736  0.70574476  1
  P  P283  1  0.40500363  0.37752287  0.45366792  1
  P  P284  1  0.40695526  0.37622316  0.95693405  1
  P  P285  1  0.40534322  0.87601104  0.45528962  1
  P  P286  1  0.40629186  0.87522661  0.95454161  1
  P  P287  1  0.59530577  0.12301120  0.04645467  1
  P  P288  1  0.59256132  0.12783657  0.54569500  1
  P  P289  1  0.59561665  0.62829589  0.04662325  1
  P  P290  1  0.59300813  0.62488430  0.54366411  1
  P  P291  1  0.90708339  0.37483874  0.29424833  1
  P  P292  1  0.90664121  0.37528795  0.79431986  1
  P  P293  1  0.90683684  0.87523678  0.29537087  1
  P  P294  1  0.90670597  0.87474908  0.29564527  1
  P  P295  1  0.90713540  0.87516948  0.79458366  1
  P  P296  1  0.40666170  0.37489533  0.95708691  1
  P  P297  1  0.40571260  0.87433939  0.45502984  1
  P  P298  1  0.40623068  0.87500087  0.95495624  1
  P  P299  1  0.59499566  0.12247712  0.04633194  1
  P  P300  1  0.59333797  0.12510477  0.54291351  1
  P  P301  1  0.59376877  0.62499930  0.54504420  1
  P  P302  1  0.90617333  0.37530217  0.29394991  1
  P  P303  1  0.90743414  0.37504962  0.79392740  1
  P  P304  1  0.90660915  0.87498489  0.29465070  1
  P  P305  1  0.90677709  0.87543243  0.79425468  1
  P  P306  1  0.40531903  0.87430026  0.45536373  1
  P  P307  1  0.40635862  0.87472355  0.95437237  1
  P  P308  1  0.09251840  0.62469416  0.70591117  1
  P  P309  1  0.40242657  0.37451457  0.45009133  1
  P  P310  1  0.40645756  0.37376414  0.95781667  1
  P  P311  1  0.59300719  0.12511554  0.54366371  1
  P  P312  1  0.59530613  0.62698845  0.04645551  1
  P  P313  1  0.59256123  0.62216232  0.54569526  1
  P  P314  1  0.09304507  0.62570018  0.20588111  1
  P  P315  1  0.09228047  0.62534914  0.70611548  1
  P  P316  1  0.40328355  0.37488775  0.45114653  1
  P  P317  1  0.90780101  0.37510589  0.29446888  1
  P  P318  1  0.90644356  0.37469101  0.79455861  1
  P  P319  1  0.59569976  0.12156277  0.04658704  1
  P  P320  1  0.09272790  0.12412307  0.20523177  1
  P  P321  1  0.59376858  0.12499924  0.54504401  1
  P  P322  1  0.59499603  0.62752160  0.04633238  1
  P  P323  1  0.59333849  0.62489527  0.54291377  1
  P  P324  1  0.90617317  0.37470017  0.29394996  1
  P  P325  1  0.90743379  0.37495248  0.79392693  1
  P  P326  1  0.90660881  0.87501551  0.29465070  1
  P  P327  1  0.90677663  0.87456857  0.79425474  1
  P  P328  1  0.09211742  0.62539363  0.70618280  1
  P  P329  1  0.40242669  0.37548605  0.45009122  1
  P  P330  1  0.40645731  0.37623546  0.95781713  1
  P  P331  1  0.40531887  0.87569993  0.45536356  1
  P  P332  1  0.40635889  0.87527763  0.95437250  1
  P  P333  1  0.59556057  0.12245654  0.04703463  1
  P  P334  1  0.59131298  0.12878588  0.54572969  1
  P  P335  1  0.59570082  0.62843609  0.04658703  1
  P  P336  1  0.09212759  0.12480722  0.70615312  1
  P  P337  1  0.09275953  0.62566214  0.20476140  1
  P  P338  1  0.09227041  0.62484276  0.70601050  1
  P  P339  1  0.40173663  0.37462430  0.44961952  1
  P  P340  1  0.40601543  0.37451292  0.95816908  1
  P  P341  1  0.40536821  0.87465286  0.45540147  1
  P  P342  1  0.40640100  0.87486722  0.95430000  1
  P  P343  1  0.59568153  0.12161096  0.04669505  1
  P  P344  1  0.59163444  0.12745104  0.54467726  1
  P  P345  1  0.59562325  0.62801948  0.04719906  1
  P  P346  1  0.90688537  0.87500124  0.79450126  1
  P  P347  1  0.09275903  0.12433624  0.20476164  1
  P  P348  1  0.09226974  0.12515579  0.70601074  1
  P  P349  1  0.09272803  0.62587547  0.20523141  1
  P  P350  1  0.09212836  0.62519133  0.70615277  1
  P  P351  1  0.40173687  0.37537664  0.44961971  1
  P  P352  1  0.40601527  0.37548611  0.95816932  1
  P  P353  1  0.40536816  0.87534739  0.45540140  1
  P  P354  1  0.40640095  0.87513385  0.95429997  1
  P  P355  1  0.59562207  0.12197979  0.04719896  1
  P  P356  1  0.90644350  0.37531111  0.79455852  1
  P  P357  1  0.90670565  0.87525136  0.29564513  1
  P  P358  1  0.90713520  0.87483211  0.79458355  1
  P  P359  1  0.09318201  0.12473163  0.20471107  1
  P  P360  1  0.09282452  0.12551490  0.70573463  1
  P  P361  1  0.09318277  0.62526661  0.20471102  1
  P  P362  1  0.09282520  0.62448325  0.70573417  1
  P  P363  1  0.40328395  0.37511286  0.45114651  1
  P  P364  1  0.40695588  0.37377668  0.95693341  1
  P  P365  1  0.40534384  0.87398869  0.45528947  1
  P  P366  1  0.40629170  0.87477487  0.95454163  1
  P  P367  1  0.59561595  0.12170331  0.04662324  1
  P  P368  1  0.59257794  0.12579176  0.54391651  1
  P  P369  1  0.59556118  0.62754278  0.04703506  1
  P  P370  1  0.59131298  0.62121310  0.54572953  1
  P  P371  1  0.59257872  0.62420828  0.54391644  1
  P  P372  1  0.90780075  0.37489595  0.29446862  1
  P  P373  1  0.59033669  0.12952240  0.54602985  1
  P  P374  1  0.59568261  0.62838823  0.04669500  1
  P  P375  1  0.59163553  0.62254940  0.54467646  1
  P  P376  1  0.90823688  0.37495210  0.29454104  1
  P  P377  1  0.90648588  0.37520473  0.79473338  1
  P  P378  1  0.90658859  0.87514766  0.29584161  1
  P  P379  1  0.90699350  0.87489469  0.79453963  1
  P  P380  1  0.09295834  0.12450992  0.20463927  1
  P  P381  1  0.09251777  0.12530408  0.70591186  1
  P  P382  1  0.09274985  0.62589687  0.20557991  1
  P  P383  1  0.40594940  0.37499966  0.95807688  1
  P  P384  1  0.40542554  0.87500020  0.45542820  1
  P  P385  1  0.40642653  0.87500062  0.95427716  1
  P  P386  1  0.59562955  0.12179106  0.04693100  1
  P  P387  1  0.59044831  0.12944685  0.54581565  1
  P  P388  1  0.59563009  0.62820838  0.04693102  1
  P  P389  1  0.59044892  0.62055354  0.54581467  1
  P  P390  1  0.90840296  0.37500113  0.29451680  1
  P  P391  1  0.90652026  0.37500132  0.79477688  1
  P  P392  1  0.90653247  0.87500053  0.29592014  1
  P  P393  1  0.59033728  0.62047728  0.54603017  1
  P  P394  1  0.90823691  0.37505056  0.29454106  1
  P  P395  1  0.90648596  0.37479818  0.79473344  1
  P  P396  1  0.90658860  0.87485329  0.29584158  1
  P  P397  1  0.90699343  0.87510642  0.79453863  1
  P  P398  1  0.09271011  0.12420769  0.20496634  1
  P  P399  1  0.09217542  0.12502143  0.70608165  1
  P  P400  1  0.09271057  0.62579087  0.20496685  1
  P  P401  1  0.09217616  0.62497701  0.70608122  1
  P  P402  1  0.40157183  0.37500014  0.44971420  1
  P  P403  1  0.90719586  0.87472093  0.79455407  1
  P  P404  1  0.09339192  0.12498375  0.20534899  1
  P  P405  1  0.09322374  0.12543078  0.70574476  1
  P  P406  1  0.09382833  0.62530029  0.20604946  1
  P  P407  1  0.09256702  0.62504797  0.70607272  1
  P  P408  1  0.40500329  0.37247830  0.45366802  1
  P  P409  1  0.40666110  0.37510481  0.95708692  1
  P  P410  1  0.40571270  0.87566196  0.45503029  1
  P  P411  1  0.59428677  0.12433829  0.04496975  1
  P  P412  1  0.90708337  0.37516333  0.29424856  1
  P  P413  1  0.90664103  0.37471407  0.79431975  1
  P  P414  1  0.90683704  0.87476356  0.29537131  1
  P  P415  1  0.90719576  0.87528098  0.79455419  1
  P  P416  1  0.09274929  0.12410159  0.20557966  1
  P  P417  1  0.09211664  0.12460492  0.70618308  1
  P  P418  1  0.09295917  0.62548835  0.20463917  1
  P  P419  1  0.59428668  0.62566073  0.04497056  1
  P  P420  1  0.09304452  0.12429818  0.20588098  1
  P  P421  1  0.09227911  0.12464960  0.70611620  1
  O  O422  1  0.09974975  0.12456460  0.36665234  1
  O  O423  1  0.09842053  0.12471185  0.86671322  1
  O  O424  1  0.39977911  0.87358347  0.61543001  1
  O  O425  1  0.16307057  0.02298302  0.13828410  1
  O  O426  1  0.16170898  0.02257203  0.63926691  1
  O  O427  1  0.16214651  0.52301124  0.13781118  1
  O  O428  1  0.16218490  0.52251268  0.63901614  1
  O  O429  1  0.90134025  0.87493874  0.13404172  1
  O  O430  1  0.90195672  0.87485143  0.63360101  1
  O  O431  1  0.04502796  0.37533471  0.35274685  1
  O  O432  1  0.04602698  0.37498278  0.85287361  1
  O  O433  1  0.04526227  0.87479349  0.35369956  1
  O  O434  1  0.83753914  0.77338600  0.36380640  1
  O  O435  1  0.83831302  0.77280827  0.86149041  1
  O  O436  1  0.83867215  0.47741701  0.36067130  1
  O  O437  1  0.83710140  0.47720698  0.86166621  1
  O  O438  1  0.83744785  0.97696323  0.36376104  1
  O  O439  1  0.83827143  0.97696401  0.86200289  1
  O  O440  1  0.90297124  0.37475856  0.13403799  1
  O  O441  1  0.90017178  0.37496822  0.63406662  1
  O  O442  1  0.90095963  0.87515116  0.13525505  1
  O  O443  1  0.90085432  0.87537673  0.63391886  1
  O  O444  1  0.33151816  0.27446046  0.89494812  1
  O  O445  1  0.90267241  0.37535974  0.13388818  1
  O  O446  1  0.90113741  0.37494159  0.63366939  1
  O  O447  1  0.90128883  0.87475843  0.13479948  1
  O  O448  1  0.09866007  0.62506071  0.36595834  1
  O  O449  1  0.09804312  0.62514847  0.86639994  1
  O  O450  1  0.83788129  0.27273852  0.36079019  1
  O  O451  1  0.83791680  0.27301179  0.86051863  1
  O  O452  1  0.83715733  0.77289532  0.36145484  1
  O  O453  1  0.66117738  0.51931532  0.61219615  1
  O  O454  1  0.16085878  0.22698652  0.13879450  1
  O  O455  1  0.16162004  0.22678277  0.63963179  1
  O  O456  1  0.16295787  0.72698736  0.13765064  1
  O  O457  1  0.16218338  0.72648433  0.63851655  1
  O  O458  1  0.95497383  0.62533697  0.14725226  1
  O  O459  1  0.95397438  0.62498508  0.64712565  1
  O  O460  1  0.45569690  0.12469605  0.10414112  1
  O  O461  1  0.45532369  0.12451682  0.60415815  1
  O  O462  1  0.45563722  0.62568680  0.10413958  1
  O  O463  1  0.45420437  0.62919666  0.59546937  1
  O  O464  1  0.54436253  0.37431304  0.39586144  1
  O  O465  1  0.54579585  0.37080369  0.90453204  1
  O  O466  1  0.54430262  0.87530414  0.39585940  1
  O  O467  1  0.54467596  0.87548332  0.89584265  1
  O  O468  1  0.33608567  0.77423814  0.38684940  1
  O  O469  1  0.33627033  0.77336230  0.88803758  1
  O  O470  1  0.33426106  0.47790631  0.38289844  1
  O  O471  1  0.33085832  0.47571325  0.89541860  1
  O  O472  1  0.33637931  0.97747612  0.38684433  1
  O  O473  1  0.33652333  0.97742116  0.88803768  1
  O  O474  1  0.90017151  0.37503530  0.63406667  1
  O  O475  1  0.90095965  0.87485020  0.13525511  1
  O  O476  1  0.90085107  0.87462161  0.63391793  1
  O  O477  1  0.04598274  0.37519128  0.35539989  1
  O  O478  1  0.04501615  0.37499200  0.85376638  1
  O  O479  1  0.04559504  0.87481081  0.35397567  1
  O  O480  1  0.04591210  0.87496925  0.85320023  1
  O  O481  1  0.40017242  0.37538860  0.11958003  1
  O  O482  1  0.38996162  0.37536960  0.60863188  1
  O  O483  1  0.40120525  0.87483261  0.11498960  1
  O  O484  1  0.83753840  0.97716892  0.36334423  1
  O  O485  1  0.83816948  0.97685945  0.86208326  1
  O  O486  1  0.90267221  0.37464227  0.13388786  1
  O  O487  1  0.90052918  0.37503030  0.63389391  1
  O  O488  1  0.90114228  0.87524876  0.13507025  1
  O  O489  1  0.33564723  0.97535398  0.38718202  1
  O  O490  1  0.33608310  0.97576543  0.38684858  1
  O  O491  1  0.33626851  0.97664205  0.88803581  1
  O  O492  1  0.95396083  0.12316600  0.14672777  1
  O  O493  1  0.95360484  0.12465135  0.64678468  1
  O  O494  1  0.95406362  0.62624062  0.14622543  1
  O  O495  1  0.95384656  0.62463976  0.64657330  1
  O  O496  1  0.45639356  0.12426275  0.10412700  1
  O  O497  1  0.45347390  0.12052169  0.59603690  1
  O  O498  1  0.45626637  0.62560638  0.10448900  1
  O  O499  1  0.16294579  0.02284143  0.13761080  1
  O  O500  1  0.16153098  0.02306616  0.63865730  1
  O  O501  1  0.16024703  0.52305590  0.13824620  1
  O  O502  1  0.16125149  0.52286229  0.64008849  1
  O  O503  1  0.66605590  0.22432949  0.11281966  1
  O  O504  1  0.65541449  0.23419608  0.61321301  1
  O  O505  1  0.66274955  0.73033144  0.11862630  1
  O  O506  1  0.66469905  0.72436978  0.61091993  1
  O  O507  1  0.33435337  0.27264672  0.38217123  1
  O  O508  1  0.33409510  0.27439900  0.89252309  1
  O  O509  1  0.90120293  0.87440384  0.63398748  1
  O  O510  1  0.04577187  0.37534092  0.35504964  1
  O  O511  1  0.04495340  0.37496522  0.85386957  1
  O  O512  1  0.04567541  0.87464078  0.35390356  1
  O  O513  1  0.04600801  0.87490144  0.85340947  1
  O  O514  1  0.40028722  0.37614973  0.11907370  1
  O  O515  1  0.39085434  0.37612108  0.60907859  1
  O  O516  1  0.40102143  0.87472928  0.11503517  1
  O  O517  1  0.33673902  0.47792591  0.88923097  1
  O  O518  1  0.33527782  0.97547203  0.38726811  1
  O  O519  1  0.83718114  0.47728827  0.86150551  1
  O  O520  1  0.33638517  0.97674618  0.88812928  1
  O  O521  1  0.95430019  0.12362127  0.14687616  1
  O  O522  1  0.95376790  0.12464515  0.64680293  1
  O  O523  1  0.95432415  0.62581351  0.14619801  1
  O  O524  1  0.95410743  0.62475603  0.64643962  1
  O  O525  1  0.45626761  0.12425245  0.10419724  1
  O  O526  1  0.45389712  0.12066184  0.59594080  1
  O  O527  1  0.45613365  0.62561612  0.10417242  1
  O  O528  1  0.45406018  0.62326249  0.60328863  1
  O  O529  1  0.54310498  0.37433638  0.39514385  1
  O  O530  1  0.04598274  0.37480577  0.35539994  1
  O  O531  1  0.04501614  0.37500540  0.85376648  1
  O  O532  1  0.04559489  0.87518483  0.35397561  1
  O  O533  1  0.04591239  0.87502753  0.85320045  1
  O  O534  1  0.40017222  0.37461072  0.11958042  1
  O  O535  1  0.38996166  0.37462927  0.60863207  1
  O  O536  1  0.40120531  0.87516649  0.11498970  1
  O  O537  1  0.39879870  0.87542892  0.61545496  1
  O  O538  1  0.16179609  0.02256077  0.63909529  1
  O  O539  1  0.16162740  0.52304964  0.13694098  1
  O  O540  1  0.16168579  0.52229640  0.63910319  1
  O  O541  1  0.66560268  0.22412676  0.11265656  1
  O  O542  1  0.66788127  0.22474002  0.60645230  1
  O  O543  1  0.66317181  0.72901319  0.11622305  1
  O  O544  1  0.66355220  0.72381129  0.61233229  1
  O  O545  1  0.33479652  0.27278920  0.38357462  1
  O  O546  1  0.33060934  0.27466853  0.89512469  1
  O  O547  1  0.33662501  0.77183639  0.38719027  1
  O  O548  1  0.60531468  0.11558601  0.88807821  1
  O  O549  1  0.60025263  0.62073215  0.38523967  1
  O  O550  1  0.60483860  0.63354383  0.88828006  1
  O  O551  1  0.66275141  0.01966488  0.11862795  1
  O  O552  1  0.66470184  0.02562840  0.61092214  1
  O  O553  1  0.66605846  0.52566665  0.11282218  1
  O  O554  1  0.65541653  0.51579988  0.61321392  1
  O  O555  1  0.16024591  0.22694017  0.13824664  1
  O  O556  1  0.16124987  0.22713387  0.64008895  1
  O  O557  1  0.16294564  0.72715436  0.13761113  1
  O  O558  1  0.33637617  0.77314948  0.38652929  1
  O  O559  1  0.33646792  0.77284730  0.88792176  1
  O  O560  1  0.33435003  0.47735633  0.38216917  1
  O  O561  1  0.33409120  0.47560262  0.89252066  1
  O  O562  1  0.33643413  0.97617142  0.38661881  1
  O  O563  1  0.16153061  0.72693010  0.63865784  1
  O  O564  1  0.09813694  0.12432006  0.36560673  1
  O  O565  1  0.09764325  0.12427081  0.86669594  1
  O  O566  1  0.09813741  0.62567864  0.36560600  1
  O  O567  1  0.09764373  0.62572762  0.86669568  1
  O  O568  1  0.83833825  0.27301186  0.36124219  1
  O  O569  1  0.83696665  0.27297588  0.86169284  1
  O  O570  1  0.83737534  0.77326476  0.36393102  1
  O  O571  1  0.83825835  0.77291808  0.86172543  1
  O  O572  1  0.83833703  0.47699239  0.36124215  1
  O  O573  1  0.16208772  0.52300960  0.63948125  1
  O  O574  1  0.66471949  0.22546797  0.11272961  1
  O  O575  1  0.66370670  0.22685952  0.61153157  1
  O  O576  1  0.66301760  0.72901224  0.11827864  1
  O  O577  1  0.66325862  0.72792378  0.61076677  1
  O  O578  1  0.33698161  0.27098799  0.38172162  1
  O  O579  1  0.33674174  0.27207620  0.88923344  1
  O  O580  1  0.33527999  0.77453217  0.38727040  1
  O  O581  1  0.33629275  0.77314068  0.88846827  1
  O  O582  1  0.83781775  0.77251538  0.86098355  1
  O  O583  1  0.83787899  0.47726536  0.36079162  1
  O  O584  1  0.83791225  0.47699032  0.86051941  1
  O  O585  1  0.83715503  0.97710694  0.36145594  1
  O  O586  1  0.83712852  0.97660835  0.86119182  1
  O  O587  1  0.90024979  0.37456660  0.13334832  1
  O  O588  1  0.90157953  0.37471386  0.63328715  1
  O  O589  1  0.90134020  0.87506209  0.13404168  1
  O  O590  1  0.90195658  0.87515008  0.63360087  1
  O  O591  1  0.04502779  0.37466366  0.35274680  1
  O  O592  1  0.54475216  0.87555752  0.89567331  1
  O  O593  1  0.59921782  0.12697145  0.38506948  1
  O  O594  1  0.90154179  0.87449328  0.63394880  1
  O  O595  1  0.04540033  0.37542770  0.35423258  1
  O  O596  1  0.04517180  0.37488813  0.85368778  1
  O  O597  1  0.04572273  0.87454234  0.35384836  1
  O  O598  1  0.04598990  0.87488388  0.85362518  1
  O  O599  1  0.40035407  0.37670026  0.11819316  1
  O  O600  1  0.39203355  0.37795431  0.60994347  1
  O  O601  1  0.40085523  0.87467828  0.11517834  1
  O  O602  1  0.54646078  0.37519965  0.90455147  1
  O  O603  1  0.54439708  0.87401819  0.39699727  1
  O  O604  1  0.16060963  0.22697889  0.13763021  1
  O  O605  1  0.16125931  0.22748250  0.63984675  1
  O  O606  1  0.16296569  0.72729787  0.13784287  1
  O  O607  1  0.33631111  0.97678223  0.88792351  1
  O  O608  1  0.95387471  0.12317627  0.14661036  1
  O  O609  1  0.95353563  0.12495558  0.64686499  1
  O  O610  1  0.95384157  0.62651341  0.14641646  1
  O  O611  1  0.95359478  0.62462878  0.64676246  1
  O  O612  1  0.45648656  0.12427210  0.10448058  1
  O  O613  1  0.45257897  0.12012854  0.59642668  1
  O  O614  1  0.45639708  0.62567965  0.10489737  1
  O  O615  1  0.45151005  0.62896894  0.59835458  1
  O  O616  1  0.54205083  0.37439375  0.39513577  1
  O  O617  1  0.45639643  0.12432207  0.10489834  1
  O  O618  1  0.45151025  0.12103247  0.59835503  1
  O  O619  1  0.45648707  0.62572962  0.10447935  1
  O  O620  1  0.45257962  0.62987290  0.59642624  1
  O  O621  1  0.54205119  0.37560557  0.39513633  1
  O  O622  1  0.54624734  0.37564608  0.90681809  1
  O  O623  1  0.33564963  0.77464871  0.38718259  1
  O  O624  1  0.33638718  0.77325850  0.88813141  1
  O  O625  1  0.33479412  0.47721436  0.38357237  1
  O  O626  1  0.83696565  0.47702895  0.86169322  1
  O  O627  1  0.83737506  0.97673965  0.36393099  1
  O  O628  1  0.83825680  0.97708635  0.86172494  1
  O  O629  1  0.90296099  0.37500149  0.13407266  1
  O  O630  1  0.90004615  0.37500203  0.63411729  1
  O  O631  1  0.90085542  0.87500097  0.13533196  1
  O  O632  1  0.90059188  0.87500098  0.63385416  1
  O  O633  1  0.04604684  0.37499864  0.35547730  1
  O  O634  1  0.04506211  0.37499872  0.85364012  1
  O  O635  1  0.04554329  0.87499856  0.35401949  1
  O  O636  1  0.33569983  0.47529503  0.38782627  1
  O  O637  1  0.33124092  0.47435750  0.89432987  1
  O  O638  1  0.33686204  0.97806260  0.38778164  1
  O  O639  1  0.33641577  0.97693067  0.88805050  1
  O  O640  1  0.95473852  0.12479660  0.14629982  1
  O  O641  1  0.95461873  0.12499744  0.64624833  1
  O  O642  1  0.09776811  0.62548708  0.86661831  1
  O  O643  1  0.83867350  0.27258720  0.36067096  1
  O  O644  1  0.83710225  0.27279834  0.86166578  1
  O  O645  1  0.83744847  0.77304013  0.36375982  1
  O  O646  1  0.83827259  0.77303992  0.86200240  1
  O  O647  1  0.83778870  0.47655315  0.36177535  1
  O  O648  1  0.83684937  0.47689007  0.86166033  1
  O  O649  1  0.83753869  0.97661757  0.36380774  1
  O  O650  1  0.83831236  0.97719538  0.86149065  1
  O  O651  1  0.90297108  0.37524379  0.13403820  1
  O  O652  1  0.16306947  0.72701317  0.13828427  1
  O  O653  1  0.16170666  0.72742523  0.63926736  1
  O  O654  1  0.16295848  0.02300845  0.13765066  1
  O  O655  1  0.16218380  0.02351166  0.63851626  1
  O  O656  1  0.16085944  0.52300953  0.13879337  1
  O  O657  1  0.16162124  0.52321306  0.63963095  1
  O  O658  1  0.66537921  0.22497444  0.11281599  1
  O  O659  1  0.66117540  0.23068059  0.61219505  1
  O  O660  1  0.66293547  0.73018233  0.11838650  1
  O  O661  1  0.66328302  0.72783607  0.61108105  1
  O  O662  1  0.33533805  0.27244734  0.38198534  1
  O  O663  1  0.33862973  0.27344837  0.88756252  1
  O  O664  1  0.09861819  0.12418852  0.36618982  1
  O  O665  1  0.09773298  0.12413861  0.86679042  1
  O  O666  1  0.09849951  0.62523780  0.36529030  1
  O  O667  1  0.09805931  0.62515881  0.86650852  1
  O  O668  1  0.83865014  0.27244641  0.36044793  1
  O  O669  1  0.66326099  0.02207396  0.61076848  1
  O  O670  1  0.66472192  0.52452858  0.11273189  1
  O  O671  1  0.66370955  0.52313653  0.61153368  1
  O  O672  1  0.16212059  0.22726101  0.13921039  1
  O  O673  1  0.16208507  0.22698779  0.63948230  1
  O  O674  1  0.16284376  0.72710430  0.13854533  1
  O  O675  1  0.16286949  0.72660516  0.63880928  1
  O  O676  1  0.09901978  0.12422353  0.36647940  1
  O  O677  1  0.09794357  0.12431863  0.86674955  1
  O  O678  1  0.09875149  0.62508439  0.36534064  1
  O  O679  1  0.09825733  0.62488673  0.86634374  1
  O  O680  1  0.83836862  0.27245624  0.36048869  1
  O  O681  1  0.83729196  0.27273727  0.86109922  1
  O  O682  1  0.83752504  0.77281755  0.36283211  1
  O  O683  1  0.83795022  0.77327726  0.86194210  1
  O  O684  1  0.04602638  0.37501624  0.85287418  1
  O  O685  1  0.04526202  0.87520231  0.35369935  1
  O  O686  1  0.39962565  0.37341281  0.11845235  1
  O  O687  1  0.39492856  0.36609308  0.61221077  1
  O  O688  1  0.59901496  0.12455540  0.38441739  1
  O  O689  1  0.60021971  0.12358508  0.88456928  1
  O  O690  1  0.83702410  0.27339055  0.36176774  1
  O  O691  1  0.83724321  0.27307292  0.86120246  1
  O  O692  1  0.83800593  0.77335109  0.36319656  1
  O  O693  1  0.83841722  0.77263766  0.86135259  1
  O  O694  1  0.83836804  0.47754805  0.36048896  1
  O  O695  1  0.83729160  0.47726741  0.86109960  1
  O  O696  1  0.83752442  0.97718561  0.36283250  1
  O  O697  1  0.83794891  0.97672638  0.86194280  1
  O  O698  1  0.90168203  0.37459470  0.13363818  1
  O  O699  1  0.90113836  0.37506011  0.63366954  1
  O  O700  1  0.66267331  0.73011958  0.11892725  1
  O  O701  1  0.66531298  0.72155756  0.61124002  1
  O  O702  1  0.33410464  0.27243923  0.38235925  1
  O  O703  1  0.33214815  0.27451796  0.89426563  1
  O  O704  1  0.33654419  0.77352949  0.38648332  1
  O  O705  1  0.33640565  0.77306163  0.88786998  1
  O  O706  1  0.33410160  0.47756339  0.38235747  1
  O  O707  1  0.33214441  0.47548332  0.89426278  1
  O  O708  1  0.33654190  0.97647445  0.38648243  1
  O  O709  1  0.33640370  0.97694302  0.88786859  1
  O  O710  1  0.33652531  0.77258331  0.88803945  1
  O  O711  1  0.33465430  0.47719192  0.38208847  1
  O  O712  1  0.33733579  0.47583962  0.88947656  1
  O  O713  1  0.39887573  0.87387007  0.61547371  1
  O  O714  1  0.16294137  0.02271919  0.13799732  1
  O  O715  1  0.16166665  0.02260402  0.63894072  1
  O  O716  1  0.16113011  0.52309253  0.13706019  1
  O  O717  1  0.16145034  0.52241893  0.63947093  1
  O  O718  1  0.66602628  0.22381452  0.11277456  1
  O  O719  1  0.66583997  0.22640821  0.60718517  1
  O  O720  1  0.83702358  0.47661465  0.36176792  1
  O  O721  1  0.83724312  0.47693197  0.86120282  1
  O  O722  1  0.83800589  0.97665209  0.36319754  1
  O  O723  1  0.83841627  0.97736697  0.86135292  1
  O  O724  1  0.90168183  0.37540733  0.13363835  1
  O  O725  1  0.66429755  0.22529107  0.11217147  1
  O  O726  1  0.90025044  0.37543553  0.13334818  1
  O  O727  1  0.90157949  0.37528855  0.63328697  1
  O  O728  1  0.66313476  0.72805879  0.11221734  1
  O  O729  1  0.66358116  0.72692638  0.61194782  1
  O  O730  1  0.95406314  0.12376291  0.14622493  1
  O  O731  1  0.95384580  0.12536375  0.64657365  1
  O  O732  1  0.95396110  0.62683750  0.14672828  1
  O  O733  1  0.95360548  0.62535226  0.64678413  1
  O  O734  1  0.45626604  0.12439541  0.10448915  1
  O  O735  1  0.45264064  0.12399722  0.60051828  1
  O  O736  1  0.45639387  0.62573884  0.10412580  1
  O  O737  1  0.45347469  0.62947957  0.59603664  1
  O  O738  1  0.54250617  0.37582640  0.39487470  1
  O  O739  1  0.54652769  0.37634194  0.90639830  1
  O  O740  1  0.60318287  0.11997122  0.88671279  1
  O  O741  1  0.60017310  0.62635179  0.38227626  1
  O  O742  1  0.39879880  0.87456866  0.61545505  1
  O  O743  1  0.16296638  0.02269819  0.13784301  1
  O  O744  1  0.16158508  0.02275631  0.63883857  1
  O  O745  1  0.16061089  0.52301704  0.13762949  1
  O  O746  1  0.16126100  0.52251371  0.63984620  1
  O  O747  1  0.66610912  0.22390346  0.11273694  1
  O  O748  1  0.66114084  0.23019091  0.60934626  1
  O  O749  1  0.66276638  0.72988914  0.11889851  1
  O  O750  1  0.66513070  0.72111257  0.61164630  1
  O  O751  1  0.33406143  0.27213111  0.38242753  1
  O  O752  1  0.54475219  0.87444130  0.89567349  1
  O  O753  1  0.60017264  0.12364972  0.38227575  1
  O  O754  1  0.60556238  0.11567689  0.88808852  1
  O  O755  1  0.59921765  0.62303037  0.38506984  1
  O  O756  1  0.60318398  0.63003153  0.88671379  1
  O  O757  1  0.66293791  0.01981450  0.11838844  1
  O  O758  1  0.66328565  0.02216198  0.61108290  1
  O  O759  1  0.66538133  0.52502223  0.11281844  1
  O  O760  1  0.90052868  0.37497231  0.63389452  1
  O  O761  1  0.90114227  0.87475197  0.13507064  1
  O  O762  1  0.16158475  0.72723979  0.63883919  1
  O  O763  1  0.09849886  0.12476073  0.36529039  1
  O  O764  1  0.09805886  0.12483936  0.86650864  1
  O  O765  1  0.09861880  0.62580996  0.36619001  1
  O  O766  1  0.09773281  0.62585979  0.86679015  1
  O  O767  1  0.83738635  0.27351946  0.36184771  1
  O  O768  1  0.83694908  0.27314165  0.86150355  1
  O  O769  1  0.83776908  0.77345477  0.36358203  1
  O  O770  1  0.83838772  0.77274947  0.86140952  1
  O  O771  1  0.83864909  0.47755726  0.36044922  1
  O  O772  1  0.40098447  0.87544450  0.11558267  1
  O  O773  1  0.39977960  0.87641520  0.61543051  1
  O  O774  1  0.16284554  0.02289218  0.13854513  1
  O  O775  1  0.16287184  0.02339133  0.63880894  1
  O  O776  1  0.16212281  0.52273533  0.13920987  1
  O  O777  1  0.16302913  0.72715540  0.13819653  1
  O  O778  1  0.16179535  0.72743582  0.63909378  1
  O  O779  1  0.09865923  0.12493717  0.36595858  1
  O  O780  1  0.09804271  0.12484978  0.86639971  1
  O  O781  1  0.09975010  0.62543415  0.36665221  1
  O  O782  1  0.09842051  0.62528651  0.86671351  1
  O  O783  1  0.83693254  0.27298697  0.36171632  1
  O  O784  1  0.83829482  0.27257466  0.86073347  1
  O  O785  1  0.83785652  0.77301335  0.36218773  1
  O  O786  1  0.60037417  0.62658747  0.38154841  1
  O  O787  1  0.60507079  0.63390706  0.88778964  1
  O  O788  1  0.66313751  0.02193771  0.11221795  1
  O  O789  1  0.66358357  0.02306952  0.61194969  1
  O  O790  1  0.66430016  0.52470533  0.11217397  1
  O  O791  1  0.66875905  0.52564241  0.60567062  1
  O  O792  1  0.16214435  0.22698551  0.13781267  1
  O  O793  1  0.16218254  0.22748419  0.63901686  1
  O  O794  1  0.90128905  0.87524200  0.13479915  1
  O  O795  1  0.90154204  0.87550731  0.63394873  1
  O  O796  1  0.04540044  0.37456893  0.35423270  1
  O  O797  1  0.04517188  0.37510833  0.85368819  1
  O  O798  1  0.04572225  0.87545359  0.35384844  1
  O  O799  1  0.04599004  0.87511283  0.85362547  1
  O  O800  1  0.40035356  0.37329871  0.11819362  1
  O  O801  1  0.39203244  0.37204471  0.60994335  1
  O  O802  1  0.40085572  0.87532089  0.11517842  1
  O  O803  1  0.39903513  0.87695274  0.61546377  1
  O  O804  1  0.66611213  0.22411060  0.11274192  1
  O  O805  1  0.65569836  0.23420349  0.61234848  1
  O  O806  1  0.83829161  0.47742790  0.86073457  1
  O  O807  1  0.83785462  0.97698862  0.36218932  1
  O  O808  1  0.83781624  0.97748779  0.86098463  1
  O  O809  1  0.66875386  0.22435555  0.60566830  1
  O  O810  1  0.04538227  0.87499547  0.85375120  1
  O  O811  1  0.39962560  0.37658687  0.11845222  1
  O  O812  1  0.39492963  0.38390631  0.61221071  1
  O  O813  1  0.40098405  0.87455483  0.11558281  1
  O  O814  1  0.33086203  0.27428886  0.89542019  1
  O  O815  1  0.33638231  0.77252742  0.38684539  1
  O  O816  1  0.95381457  0.12330128  0.14651822  1
  O  O817  1  0.95350569  0.12525837  0.64688626  1
  O  O818  1  0.95381486  0.62670230  0.14651852  1
  O  O819  1  0.95350658  0.62474509  0.64688582  1
  O  O820  1  0.45648167  0.12430125  0.10484157  1
  O  O821  1  0.45152697  0.11998706  0.59720094  1
  O  O822  1  0.45648193  0.62570030  0.10484048  1
  O  O823  1  0.45152711  0.63001408  0.59720073  1
  O  O824  1  0.54185212  0.37499940  0.39513956  1
  O  O825  1  0.54614285  0.37499881  0.90662529  1
  O  O826  1  0.33060533  0.47533380  0.89512305  1
  O  O827  1  0.33662233  0.97816675  0.38719013  1
  O  O828  1  0.33649773  0.97736320  0.88801872  1
  O  O829  1  0.54530572  0.87499934  0.39854391  1
  O  O830  1  0.54478373  0.87499957  0.89504548  1
  O  O831  1  0.60048451  0.12858142  0.38481589  1
  O  O832  1  0.60509656  0.11582666  0.88822834  1
  O  O833  1  0.60048407  0.62142053  0.38481502  1
  O  O834  1  0.60509757  0.63417401  0.88822846  1
  O  O835  1  0.66267526  0.01987687  0.11892882  1
  O  O836  1  0.66531577  0.02843969  0.61124231  1
  O  O837  1  0.66611450  0.52588562  0.11274398  1
  O  O838  1  0.65570198  0.51579364  0.61234831  1
  O  O839  1  0.90120301  0.87559721  0.63398748  1
  O  O840  1  0.04577150  0.37465565  0.35505007  1
  O  O841  1  0.04495327  0.37503145  0.85386983  1
  O  O842  1  0.04567514  0.87535511  0.35390348  1
  O  O843  1  0.04600776  0.87509510  0.85340954  1
  O  O844  1  0.40028700  0.37384902  0.11907396  1
  O  O845  1  0.39085406  0.37387780  0.60907866  1
  O  O846  1  0.40102158  0.87526962  0.11503524  1
  O  O847  1  0.39887561  0.87612723  0.61547357  1
  O  O848  1  0.45264036  0.62600401  0.60051853  1
  O  O849  1  0.54250586  0.37417239  0.39487414  1
  O  O850  1  0.54652782  0.37365663  0.90639775  1
  O  O851  1  0.54465767  0.87396184  0.39758970  1
  O  O852  1  0.54474540  0.87450654  0.89532599  1
  O  O853  1  0.60021836  0.12446693  0.38255466  1
  O  O854  1  0.60550310  0.11544203  0.88803207  1
  O  O855  1  0.59975540  0.62152108  0.38505934  1
  O  O856  1  0.60422200  0.63186177  0.88773177  1
  O  O857  1  0.66282677  0.01959356  0.11841799  1
  O  O858  1  0.95432366  0.12418989  0.14619724  1
  O  O859  1  0.16032123  0.22701288  0.13806977  1
  O  O860  1  0.16125540  0.22736100  0.64007039  1
  O  O861  1  0.16295434  0.72725463  0.13773029  1
  O  O862  1  0.16148758  0.72710364  0.63875604  1
  O  O863  1  0.09819025  0.12452332  0.36540940  1
  O  O864  1  0.09776746  0.12451145  0.86661811  1
  O  O865  1  0.09833207  0.62576679  0.36585572  1
  O  O866  1  0.09768310  0.62583170  0.86676297  1
  O  O867  1  0.83779032  0.27345102  0.36177517  1
  O  O868  1  0.83684990  0.27311509  0.86165993  1
  O  O869  1  0.66299133  0.72948312  0.11783061  1
  O  O870  1  0.66437182  0.72216308  0.61204492  1
  O  O871  1  0.33426336  0.27209697  0.38290057  1
  O  O872  1  0.83718200  0.27271596  0.86150457  1
  O  O873  1  0.83753929  0.77283426  0.36334359  1
  O  O874  1  0.83817027  0.77314450  0.86208297  1
  O  O875  1  0.83738580  0.47648492  0.36184947  1
  O  O876  1  0.83694837  0.47686294  0.86150450  1
  O  O877  1  0.83776890  0.97654831  0.36358308  1
  O  O878  1  0.83838717  0.97725440  0.86141029  1
  O  O879  1  0.16298725  0.02295846  0.13751127  1
  O  O880  1  0.16179814  0.02331125  0.63855081  1
  O  O881  1  0.16031428  0.52312424  0.13845971  1
  O  O882  1  0.16128274  0.52311045  0.63992532  1
  O  O883  1  0.66583758  0.22465997  0.11289624  1
  O  O884  1  0.65803365  0.23265507  0.61274275  1
  O  O885  1  0.66282468  0.73040285  0.11841617  1
  O  O886  1  0.66378951  0.72679227  0.61091698  1
  O  O887  1  0.33465720  0.27281125  0.38209065  1
  O  O888  1  0.33733940  0.27416257  0.88947813  1
  O  O889  1  0.45532369  0.62548410  0.60415789  1
  O  O890  1  0.54436259  0.37568619  0.39586018  1
  O  O891  1  0.54579666  0.37919488  0.90453273  1
  O  O892  1  0.54430272  0.87469462  0.39585921  1
  O  O893  1  0.54467591  0.87451583  0.89584306  1
  O  O894  1  0.60037387  0.12341356  0.38154799  1
  O  O895  1  0.60506976  0.11609347  0.88778933  1
  O  O896  1  0.59901517  0.62544555  0.38441752  1
  O  O897  1  0.60022019  0.62641708  0.88457013  1
  O  O898  1  0.66302043  0.02098426  0.11828004  1
  O  O899  1  0.54624756  0.37435209  0.90681758  1
  O  O900  1  0.54504454  0.87431386  0.39821091  1
  O  O901  1  0.54475869  0.87478568  0.89511558  1
  O  O902  1  0.60031985  0.12629618  0.38343857  1
  O  O903  1  0.45389767  0.62933961  0.59594074  1
  O  O904  1  0.54310477  0.37566183  0.39514448  1
  O  O905  1  0.54646018  0.37479894  0.90455198  1
  O  O906  1  0.54439663  0.87598031  0.39699839  1
  O  O907  1  0.54504432  0.87568495  0.39821055  1
  O  O908  1  0.54475865  0.87521355  0.89511550  1
  O  O909  1  0.60024933  0.12927253  0.38523890  1
  O  O910  1  0.60483740  0.11645719  0.88827968  1
  O  O911  1  0.60032027  0.62370582  0.38343794  1
  O  O912  1  0.60531600  0.63441473  0.88807851  1
  O  O913  1  0.66276805  0.02010709  0.11889987  1
  O  O914  1  0.66513311  0.02888415  0.61164821  1
  O  O915  1  0.66611164  0.52609267  0.11273955  1
  O  O916  1  0.66114617  0.51980766  0.60934759  1
  O  O917  1  0.33643670  0.77383244  0.38661936  1
  O  O918  1  0.33631302  0.77322217  0.88792525  1
  O  O919  1  0.33405877  0.47787199  0.38242560  1
  O  O920  1  0.33151424  0.47554125  0.89494552  1
  O  O921  1  0.33637335  0.97685426  0.38652838  1
  O  O922  1  0.33646595  0.97715709  0.88792009  1
  O  O923  1  0.95384121  0.12348980  0.14641581  1
  O  O924  1  0.95359400  0.12537494  0.64676284  1
  O  O925  1  0.95387480  0.62682711  0.14661042  1
  O  O926  1  0.95353637  0.62504809  0.64686466  1
  O  O927  1  0.66379230  0.02320605  0.61091899  1
  O  O928  1  0.66583991  0.52533657  0.11289892  1
  O  O929  1  0.65803502  0.51734094  0.61274415  1
  O  O930  1  0.16031327  0.22687178  0.13846052  1
  O  O931  1  0.16128136  0.22688546  0.63992568  1
  O  O932  1  0.16298724  0.72703730  0.13751170  1
  O  O933  1  0.16179780  0.72668476  0.63855139  1
  O  O934  1  0.09833154  0.12423197  0.36585558  1
  O  O935  1  0.09768266  0.12416686  0.86676309  1
  O  O936  1  0.09819116  0.62547503  0.36540988  1
  O  O937  1  0.66602870  0.52618165  0.11277718  1
  O  O938  1  0.66584521  0.52359036  0.60718724  1
  O  O939  1  0.16112869  0.22690348  0.13706140  1
  O  O940  1  0.16144875  0.22757691  0.63947159  1
  O  O941  1  0.16294084  0.72727674  0.13799775  1
  O  O942  1  0.16166629  0.72739222  0.63894102  1
  O  O943  1  0.09875087  0.12491417  0.36534074  1
  O  O944  1  0.09825698  0.12511130  0.86634373  1
  O  O945  1  0.09902061  0.62577515  0.36647936  1
  O  O946  1  0.09794533  0.62568156  0.86674892  1
  O  O947  1  0.66788632  0.52525821  0.60645494  1
  O  O948  1  0.16162613  0.22694626  0.13694220  1
  O  O949  1  0.16168457  0.22769955  0.63910433  1
  O  O950  1  0.16125742  0.52263523  0.64006965  1
  O  O951  1  0.33570233  0.27470878  0.38782848  1
  O  O952  1  0.33124539  0.27564448  0.89433212  1
  O  O953  1  0.33686432  0.77194152  0.38778287  1
  O  O954  1  0.33641834  0.77307398  0.88805207  1
  O  O955  1  0.33697890  0.47901577  0.38172018  1
  O  O956  1  0.33649932  0.77264166  0.88802018  1
  O  O957  1  0.33533576  0.47755600  0.38198327  1
  O  O958  1  0.33862669  0.47655378  0.88756036  1
  O  O959  1  0.83713105  0.77339502  0.86119116  1
  O  O960  1  0.83693035  0.47701713  0.36171653  1
  O  O961  1  0.33629018  0.97686403  0.88846677  1
  O  O962  1  0.95497333  0.12466555  0.14725210  1
  O  O963  1  0.95397430  0.12501767  0.64712537  1
  O  O964  1  0.95473869  0.62520592  0.14630049  1
  O  O965  1  0.95461858  0.62500468  0.64624891  1
  O  O966  1  0.45563699  0.12431418  0.10414027  1
  O  O967  1  0.45420340  0.12080493  0.59546840  1
  O  O968  1  0.45569667  0.62530551  0.10414140  1
  O  O969  1  0.39903648  0.87304231  0.61546379  1
  O  O970  1  0.16302980  0.02284061  0.13819648  1
  O  O971  1  0.95410669  0.12524714  0.64643994  1
  O  O972  1  0.95430044  0.62638239  0.14687626  1
  O  O973  1  0.95376905  0.62535847  0.64680256  1
  O  O974  1  0.45613354  0.12438602  0.10417241  1
  O  O975  1  0.45406064  0.12673796  0.60328829  1
  O  O976  1  0.45626799  0.62574942  0.10419615  1
  O  O977  1  0.54465737  0.87603682  0.39758926  1
  O  O978  1  0.54474543  0.87549227  0.89532595  1
  O  O979  1  0.59975550  0.12848067  0.38505937  1
  O  O980  1  0.60422105  0.11814049  0.88773097  1
  O  O981  1  0.60021903  0.62553468  0.38255484  1
  O  O982  1  0.60550473  0.63455847  0.88803228  1
  O  O983  1  0.66299332  0.02051344  0.11783137  1
  O  O984  1  0.66437440  0.02783326  0.61204714  1
  O  O985  1  0.60556491  0.63432411  0.88808855  1
  O  O986  1  0.66317396  0.02098365  0.11622386  1
  O  O987  1  0.66355483  0.02618505  0.61233392  1
  O  O988  1  0.66560501  0.52586999  0.11265951  1
  O  O989  1  0.40016506  0.37499962  0.11963229  1
  O  O990  1  0.39003808  0.37499899  0.60866023  1
  O  O991  1  0.40129665  0.87499957  0.11497873  1
  O  O992  1  0.39881745  0.87499865  0.61545680  1
  O  O993  1  0.16295494  0.02274154  0.13773037  1
  O  O994  1  0.16148798  0.02289258  0.63875567  1
  O  O995  1  0.16032259  0.52298354  0.13806881  1
  O  O996  1  0.04582857  0.87499870  0.85307619  1
