# generated using pymatgen
data_Li15Fe16(PO4)16
_symmetry_space_group_name_H-M   'P 1'
_cell_length_a   10.31717661
_cell_length_b   12.50533288
_cell_length_c   9.49847070
_cell_angle_alpha   89.99867234
_cell_angle_beta   89.99953748
_cell_angle_gamma   89.99940921
_symmetry_Int_Tables_number   1
_chemical_formula_structural   Li15Fe16(PO4)16
_chemical_formula_sum   'Li135 Fe144 P144 O576'
_cell_volume   1225.49010406
_cell_formula_units_Z   9
loop_
 _symmetry_equiv_pos_site_id
 _symmetry_equiv_pos_as_xyz
  1  'x, y, z'
loop_
 _atom_site_type_symbol
 _atom_site_label
 _atom_site_symmetry_multiplicity
 _atom_site_fract_x
 _atom_site_fract_y
 _atom_site_fract_z
 _atom_site_occupancy
  Li  Li0  1  -0.00150001  0.49937280  0.50148096  1
  Li  Li1  1  0.49650983  0.25420033  0.24049355  1
  Li  Li2  1  0.50349031  0.74579918  0.25950820  1
  Li  Li3  1  0.00057527  0.00094188  0.49920056  1
  Li  Li4  1  -0.00057474  0.49906175  0.00079501  1
  Li  Li5  1  0.00076479  0.00217152  -0.00178068  1
  Li  Li6  1  -0.00076590  0.49783026  0.50177718  1
  Li  Li7  1  0.50000044  0.24999874  0.25000134  1
  Li  Li8  1  0.49999974  0.74999997  0.25000105  1
  Li  Li9  1  0.49999998  0.74999968  0.75000129  1
  Li  Li10  1  0.50349195  0.00420295  0.25950957  1
  Li  Li11  1  0.50548856  0.01701593  0.76040349  1
  Li  Li12  1  0.49650787  0.49579682  0.24048987  1
  Li  Li13  1  0.49451154  0.48298362  0.73959519  1
  Li  Li14  1  0.00149901  0.24937049  -0.00148473  1
  Li  Li15  1  -0.00150092  0.25062942  0.50148364  1
  Li  Li16  1  0.00099308  0.74966759  -0.00050199  1
  Li  Li17  1  -0.00099554  0.75033184  0.50050186  1
  Li  Li18  1  0.00162896  0.00174283  -0.00209486  1
  Li  Li19  1  0.50548357  0.73298685  0.76039742  1
  Li  Li20  1  0.49999989  -0.00000047  0.24999936  1
  Li  Li21  1  0.49999954  0.00000016  0.74999967  1
  Li  Li22  1  0.49999906  0.49999976  0.24999947  1
  Li  Li23  1  0.49451561  0.26701322  0.73960243  1
  Li  Li24  1  0.00198866  0.00138936  0.49816784  1
  Li  Li25  1  -0.00065525  0.49943147  -0.00008879  1
  Li  Li26  1  0.00028253  0.49832406  0.50134285  1
  Li  Li27  1  0.49662492  0.25180166  0.24407769  1
  Li  Li28  1  0.50185894  0.74753477  0.25369461  1
  Li  Li29  1  -0.00057560  0.25093876  0.00079516  1
  Li  Li30  1  -0.00076793  0.25217326  0.50178138  1
  Li  Li31  1  0.00076544  0.74782695  -0.00178161  1
  Li  Li32  1  0.00057253  0.74906059  0.49920324  1
  Li  Li33  1  0.50333807  0.00381902  0.25635842  1
  Li  Li34  1  0.50306914  0.00939643  0.75637494  1
  Li  Li35  1  0.49474430  0.49726081  0.24139992  1
  Li  Li36  1  0.52866314  0.31671799  0.72092817  1
  Li  Li37  1  0.00089217  0.24960440  -0.00179429  1
  Li  Li38  1  0.00221075  0.25107729  0.50103900  1
  Li  Li39  1  0.50305859  0.74198856  0.75580719  1
  Li  Li40  1  0.50479166  0.00554731  0.26123569  1
  Li  Li41  1  0.50549287  0.01611871  0.76039557  1
  Li  Li42  1  0.49432029  0.49542787  0.23907225  1
  Li  Li43  1  0.50957096  0.45925946  0.72989836  1
  Li  Li44  1  0.00074072  0.24863088  -0.00189530  1
  Li  Li45  1  -0.00070662  0.25032257  0.50161929  1
  Li  Li46  1  0.00080854  0.75001721  0.00011241  1
  Li  Li47  1  -0.00052396  0.75050252  0.50083038  1
  Li  Li48  1  0.00315407  0.25051566  0.50066510  1
  Li  Li49  1  0.00144733  0.74890005  -0.00155363  1
  Li  Li50  1  0.00141160  0.74915706  0.49868141  1
  Li  Li51  1  0.00061968  0.00008184  -0.00012965  1
  Li  Li52  1  0.00052129  0.00016530  0.49987858  1
  Li  Li53  1  0.00030532  0.50145648  -0.00218199  1
  Li  Li54  1  0.00060761  0.50018496  0.50133031  1
  Li  Li55  1  0.49349324  0.25432374  0.23793123  1
  Li  Li56  1  0.50498342  0.74431031  0.26127009  1
  Li  Li57  1  0.50519618  0.73458372  0.75970973  1
  Li  Li58  1  0.00149790  0.50062895  -0.00148426  1
  Li  Li59  1  0.00162033  0.50187571  -0.00299414  1
  Li  Li60  1  0.00207236  0.50026038  0.50092950  1
  Li  Li61  1  0.49335005  0.25420462  0.23801265  1
  Li  Li62  1  0.50481052  0.74394029  0.26073197  1
  Li  Li63  1  0.50504772  0.73619836  0.75851788  1
  Li  Li64  1  0.50406904  0.00506811  0.25815116  1
  Li  Li65  1  0.50380464  0.01033930  0.75705791  1
  Li  Li66  1  0.49362359  0.49658317  0.23967351  1
  Li  Li67  1  0.54635625  0.34570933  0.71464602  1
  Li  Li68  1  0.00155077  0.24881308  -0.00298896  1
  Li  Li69  1  0.50478873  0.74445566  0.26123096  1
  Li  Li70  1  0.50548756  0.73388599  0.76038910  1
  Li  Li71  1  0.50406706  0.74492963  0.25815423  1
  Li  Li72  1  0.50379432  0.73966557  0.75705392  1
  Li  Li73  1  0.50481079  0.00605993  0.26073308  1
  Li  Li74  1  0.50505449  0.01380767  0.75852302  1
  Li  Li75  1  0.49334093  0.49579609  0.23799552  1
  Li  Li76  1  0.54636235  0.40428680  0.71464746  1
  Li  Li77  1  0.00162486  0.24812054  -0.00299960  1
  Li  Li78  1  0.00206890  0.24974481  0.50093465  1
  Li  Li79  1  0.00120364  0.74920360  -0.00117000  1
  Li  Li80  1  0.00050237  0.74983209  0.49951805  1
  Li  Li81  1  0.50185992  0.00246530  0.25369597  1
  Li  Li82  1  0.50306284  0.00801745  0.75581494  1
  Li  Li83  1  0.49662076  0.49819156  0.24407064  1
  Li  Li84  1  0.50957065  0.29073530  0.72990669  1
  Li  Li85  1  -0.00064735  0.25056441  -0.00009035  1
  Li  Li86  1  0.00027826  0.25168110  0.50134869  1
  Li  Li87  1  0.00163013  0.74825420  -0.00209730  1
  Li  Li88  1  0.00198559  0.74861268  0.49817166  1
  Li  Li89  1  0.00099320  0.00033213  -0.00050215  1
  Li  Li90  1  -0.00099238  -0.00032964  0.50049931  1
  Li  Li91  1  0.55125850  0.37499466  0.71028273  1
  Li  Li92  1  0.00160044  0.24833767  -0.00303015  1
  Li  Li93  1  0.00394793  0.24970608  0.50023113  1
  Li  Li94  1  0.00133117  0.74902472  -0.00154018  1
  Li  Li95  1  0.00125209  0.74941786  0.49895061  1
  Li  Li96  1  0.00119830  0.00079076  -0.00116333  1
  Li  Li97  1  0.00050694  0.00017323  0.49951428  1
  Li  Li98  1  0.00161841  0.74852504  -0.00185183  1
  Li  Li99  1  0.00158258  0.74899881  0.49849502  1
  Li  Li100  1  0.00080746  -0.00002087  0.00011418  1
  Li  Li101  1  -0.00051927  -0.00049849  0.50082446  1
  Li  Li102  1  0.00074059  0.50136592  -0.00189393  1
  Li  Li103  1  -0.00070390  0.49968231  0.50161489  1
  Li  Li104  1  0.49432132  0.25456409  0.23907982  1
  Li  Li105  1  0.50333613  0.74617765  0.25635788  1
  Li  Li106  1  0.50306247  0.74061041  0.75636647  1
  Li  Li107  1  0.50498430  0.00569270  0.26127325  1
  Li  Li108  1  0.50520206  0.01542340  0.75971567  1
  Li  Li109  1  0.49349462  0.49566234  0.23791696  1
  Li  Li110  1  0.00144454  0.00109499  -0.00155026  1
  Li  Li111  1  0.00141521  0.00084670  0.49867702  1
  Li  Li112  1  0.00154284  0.50119530  -0.00297243  1
  Li  Li113  1  0.00317765  0.49950429  0.50064910  1
  Li  Li114  1  0.49363135  0.25340441  0.23969651  1
  Li  Li115  1  0.00132856  0.00097145  -0.00153698  1
  Li  Li116  1  0.00125704  0.00058754  0.49894470  1
  Li  Li117  1  0.00159796  0.50165928  -0.00302733  1
  Li  Li118  1  0.00395338  0.50030009  0.50022365  1
  Li  Li119  1  0.49326907  0.25391107  0.23829188  1
  Li  Li120  1  0.50434276  0.74411011  0.25970129  1
  Li  Li121  1  0.50495256  0.73831775  0.75770859  1
  Li  Li122  1  0.50434502  0.00589092  0.25970524  1
  Li  Li123  1  0.50495851  0.01168718  0.75771689  1
  Li  Li124  1  0.49326454  0.49608321  0.23828406  1
  Li  Li125  1  0.00161781  0.00147136  -0.00185024  1
  Li  Li126  1  0.52866813  0.43327445  0.72092362  1
  Li  Li127  1  0.00030896  0.24853781  -0.00218524  1
  Li  Li128  1  0.00060465  0.24982016  0.50133630  1
  Li  Li129  1  0.00062279  0.74991095  -0.00013387  1
  Li  Li130  1  0.00051665  0.74983970  0.49988456  1
  Li  Li131  1  0.00158665  0.00100574  0.49848923  1
  Li  Li132  1  0.00078293  0.50036965  -0.00179366  1
  Li  Li133  1  0.00221772  0.49893067  0.50103018  1
  Li  Li134  1  0.49475111  0.25272757  0.24141340  1
  Fe  Fe135  1  0.28346314  0.62324957  0.48333032  1
  Fe  Fe136  1  0.28368449  0.62323416  0.98122467  1
  Fe  Fe137  1  0.21802340  0.37514357  0.23288770  1
  Fe  Fe138  1  0.22183058  0.37457514  0.73719429  1
  Fe  Fe139  1  0.21809035  0.87456087  0.23261268  1
  Fe  Fe140  1  0.77817031  0.12542518  0.76280586  1
  Fe  Fe141  1  0.78191018  0.62543973  0.26738695  1
  Fe  Fe142  1  0.78173153  0.62517159  0.76698520  1
  Fe  Fe143  1  0.78197687  0.12485699  0.26711120  1
  Fe  Fe144  1  0.71638095  0.37470716  0.01576042  1
  Fe  Fe145  1  0.28457852  0.62259669  0.98016456  1
  Fe  Fe146  1  0.21690831  0.37467261  0.23125496  1
  Fe  Fe147  1  0.28169498  0.62410852  0.48288707  1
  Fe  Fe148  1  0.28407379  0.62346473  0.98149625  1
  Fe  Fe149  1  0.21704663  0.37466025  0.23125212  1
  Fe  Fe150  1  0.22040307  0.37401694  0.73762482  1
  Fe  Fe151  1  0.21862854  0.87480755  0.23173290  1
  Fe  Fe152  1  0.21891020  0.87449916  0.73305319  1
  Fe  Fe153  1  0.78150983  0.12405298  0.26852101  1
  Fe  Fe154  1  0.77819147  0.12520754  0.76377651  1
  Fe  Fe155  1  0.71559980  0.87475754  0.52105112  1
  Fe  Fe156  1  0.28302030  0.12442027  0.48384649  1
  Fe  Fe157  1  0.28455535  0.12718961  0.98190414  1
  Fe  Fe158  1  0.22056670  0.37399604  0.73670080  1
  Fe  Fe159  1  0.21863196  0.87451891  0.23188501  1
  Fe  Fe160  1  0.21893045  0.87438794  0.73291690  1
  Fe  Fe161  1  0.78174318  0.12412377  0.26845768  1
  Fe  Fe162  1  0.77835119  0.12487955  0.76324256  1
  Fe  Fe163  1  0.78182756  0.62510074  0.26883157  1
  Fe  Fe164  1  0.78026092  0.62451395  0.76671715  1
  Fe  Fe165  1  0.28169496  0.12588941  0.48288657  1
  Fe  Fe166  1  0.28407509  0.12653535  0.98149275  1
  Fe  Fe167  1  0.28302236  0.62557756  0.48384825  1
  Fe  Fe168  1  0.28455666  0.62281390  0.98190253  1
  Fe  Fe169  1  0.21704228  0.37534020  0.23125387  1
  Fe  Fe170  1  0.22040366  0.37598128  0.73762285  1
  Fe  Fe171  1  0.21862859  0.87518766  0.23173355  1
  Fe  Fe172  1  0.21890961  0.87549674  0.73305371  1
  Fe  Fe173  1  0.78215957  0.12494236  0.26833542  1
  Fe  Fe174  1  0.78143228  0.62553414  0.26888188  1
  Fe  Fe175  1  0.77892287  0.62384574  0.76563777  1
  Fe  Fe176  1  0.71802079  0.37431197  0.02119749  1
  Fe  Fe177  1  0.71926077  0.37241812  0.50690066  1
  Fe  Fe178  1  0.71644334  0.87552929  0.01673356  1
  Fe  Fe179  1  0.71515994  0.87477203  0.52161131  1
  Fe  Fe180  1  0.28261031  0.12472014  0.48357482  1
  Fe  Fe181  1  0.28458246  0.12699068  0.98189153  1
  Fe  Fe182  1  0.28111242  0.62562683  0.48252346  1
  Fe  Fe183  1  0.28381944  0.62367135  0.98194402  1
  Fe  Fe184  1  0.21802381  0.37485629  0.23288767  1
  Fe  Fe185  1  0.22183213  0.37542406  0.73719377  1
  Fe  Fe186  1  0.21808922  0.87544019  0.23261266  1
  Fe  Fe187  1  0.21826878  0.87517030  0.73301633  1
  Fe  Fe188  1  0.71797368  0.37378618  0.02041360  1
  Fe  Fe189  1  0.71675056  0.37109693  0.51191787  1
  Fe  Fe190  1  0.71653394  0.87579832  0.01693059  1
  Fe  Fe191  1  0.71605451  0.37267921  0.51825949  1
  Fe  Fe192  1  0.71653676  0.87675029  0.01666921  1
  Fe  Fe193  1  0.71631537  0.87676488  0.51877685  1
  Fe  Fe194  1  0.28361914  0.12529282  0.48424028  1
  Fe  Fe195  1  0.28394629  0.12732002  0.98173872  1
  Fe  Fe196  1  0.21826849  0.87482847  0.73301584  1
  Fe  Fe197  1  0.78197179  0.12435395  0.26833313  1
  Fe  Fe198  1  0.78105528  0.12554746  0.76733812  1
  Fe  Fe199  1  0.78197096  0.62564815  0.26833294  1
  Fe  Fe200  1  0.77864396  0.62502893  0.76314894  1
  Fe  Fe201  1  0.71736335  0.37605752  0.01858348  1
  Fe  Fe202  1  0.71556690  0.37899140  0.51569663  1
  Fe  Fe203  1  0.71681942  0.87368525  0.01702982  1
  Fe  Fe204  1  0.71595573  0.87489440  0.52051221  1
  Fe  Fe205  1  0.28238258  0.12716802  0.48302474  1
  Fe  Fe206  1  0.28457782  0.12740407  0.98016404  1
  Fe  Fe207  1  0.28350470  0.62577987  0.48399120  1
  Fe  Fe208  1  0.21752852  0.37479825  0.23175811  1
  Fe  Fe209  1  0.22118816  0.37449910  0.73831807  1
  Fe  Fe210  1  0.21864407  0.87503152  0.23156917  1
  Fe  Fe211  1  0.21874685  0.87478796  0.73317431  1
  Fe  Fe212  1  0.78126465  0.12409027  0.26882757  1
  Fe  Fe213  1  0.77788892  0.12651173  0.76448008  1
  Fe  Fe214  1  0.78126305  0.62591324  0.26882705  1
  Fe  Fe215  1  0.77788896  0.62349141  0.76448104  1
  Fe  Fe216  1  0.71757978  0.37500088  0.02117175  1
  Fe  Fe217  1  0.72080005  0.37500135  0.50404453  1
  Fe  Fe218  1  0.78197669  0.62514390  0.26711216  1
  Fe  Fe219  1  0.77816882  0.62457611  0.76280639  1
  Fe  Fe220  1  0.71638104  0.37529245  0.01575948  1
  Fe  Fe221  1  0.71605430  0.37731859  0.51825924  1
  Fe  Fe222  1  0.71653638  0.87324874  0.01666959  1
  Fe  Fe223  1  0.71631515  0.87323217  0.51877607  1
  Fe  Fe224  1  0.28346280  0.12675112  0.48333030  1
  Fe  Fe225  1  0.28368492  0.12676711  0.98122223  1
  Fe  Fe226  1  0.28361838  0.62470780  0.48423996  1
  Fe  Fe227  1  0.28394572  0.62268112  0.98174186  1
  Fe  Fe228  1  0.77864372  0.12497401  0.76314835  1
  Fe  Fe229  1  0.78215944  0.62506053  0.26833620  1
  Fe  Fe230  1  0.78105454  0.62445322  0.76733837  1
  Fe  Fe231  1  0.71736346  0.37394459  0.01858471  1
  Fe  Fe232  1  0.71556746  0.37100917  0.51569726  1
  Fe  Fe233  1  0.71681811  0.87631555  0.01703043  1
  Fe  Fe234  1  0.71595554  0.87510452  0.52051275  1
  Fe  Fe235  1  0.28350187  0.12421776  0.48399054  1
  Fe  Fe236  1  0.28428855  0.12688976  0.98183398  1
  Fe  Fe237  1  0.28238475  0.62282919  0.48302524  1
  Fe  Fe238  1  0.28428903  0.62311093  0.98183351  1
  Fe  Fe239  1  0.21690834  0.37532604  0.23125544  1
  Fe  Fe240  1  0.22056644  0.37600116  0.73670004  1
  Fe  Fe241  1  0.21863159  0.87547863  0.23188480  1
  Fe  Fe242  1  0.21893062  0.87560930  0.73291727  1
  Fe  Fe243  1  0.78191123  0.12456047  0.26738700  1
  Fe  Fe244  1  0.78173180  0.12482913  0.76698449  1
  Fe  Fe245  1  0.28261162  0.62528114  0.48357519  1
  Fe  Fe246  1  0.28458423  0.62300934  0.98189107  1
  Fe  Fe247  1  0.21752506  0.37519843  0.23175140  1
  Fe  Fe248  1  0.22118852  0.37549952  0.73831454  1
  Fe  Fe249  1  0.21864530  0.87496385  0.23156949  1
  Fe  Fe250  1  0.21874609  0.87520820  0.73317411  1
  Fe  Fe251  1  0.78182851  0.12490392  0.26883076  1
  Fe  Fe252  1  0.78026109  0.12548890  0.76671701  1
  Fe  Fe253  1  0.78174308  0.62587995  0.26845685  1
  Fe  Fe254  1  0.77835206  0.62512120  0.76324476  1
  Fe  Fe255  1  0.71796504  0.37621420  0.02040557  1
  Fe  Fe256  1  0.71674981  0.37890525  0.51191814  1
  Fe  Fe257  1  0.71653472  0.87420231  0.01693097  1
  Fe  Fe258  1  0.71559967  0.87524076  0.52105177  1
  Fe  Fe259  1  0.71658043  0.87500079  0.01653458  1
  Fe  Fe260  1  0.71487358  0.87499936  0.52181274  1
  Fe  Fe261  1  0.28230368  0.12494266  0.48356049  1
  Fe  Fe262  1  0.28441523  0.12674510  0.98184860  1
  Fe  Fe263  1  0.28230329  0.62505529  0.48356127  1
  Fe  Fe264  1  0.28441602  0.62325590  0.98184836  1
  Fe  Fe265  1  0.21774770  0.37499876  0.23147210  1
  Fe  Fe266  1  0.22137897  0.37499926  0.73833873  1
  Fe  Fe267  1  0.21881227  0.87499852  0.23166129  1
  Fe  Fe268  1  0.21864616  0.87499870  0.73329441  1
  Fe  Fe269  1  0.78143129  0.12446950  0.26887893  1
  Fe  Fe270  1  0.77892366  0.12615735  0.76563818  1
  Fe  Fe271  1  0.78150802  0.62594932  0.26852128  1
  Fe  Fe272  1  0.77819189  0.62479366  0.76378100  1
  Fe  Fe273  1  0.71802061  0.37568729  0.02119642  1
  Fe  Fe274  1  0.71925669  0.37758612  0.50689963  1
  Fe  Fe275  1  0.71644447  0.87447213  0.01673400  1
  Fe  Fe276  1  0.71515960  0.87522954  0.52161249  1
  Fe  Fe277  1  0.28111062  0.12437383  0.48252422  1
  Fe  Fe278  1  0.28381843  0.12632685  0.98194229  1
  P  P279  1  0.09218194  0.12468033  0.20288002  1
  P  P280  1  0.09146281  0.12500365  0.70249850  1
  P  P281  1  0.09209478  0.62488690  0.20172771  1
  P  P282  1  0.09161923  0.62456221  0.70175586  1
  P  P283  1  0.40562522  0.37799321  0.44928383  1
  P  P284  1  0.40712829  0.37567262  0.95645753  1
  P  P285  1  0.40641306  0.87695625  0.45128823  1
  P  P286  1  0.40758488  0.87552466  0.95065841  1
  P  P287  1  0.59402379  0.12297614  0.04953814  1
  P  P288  1  0.59127195  0.12745691  0.54864580  1
  P  P289  1  0.59482508  0.62818228  0.05073353  1
  P  P290  1  0.59259045  0.62609887  0.54483020  1
  P  P291  1  0.90795454  0.37478324  0.29830335  1
  P  P292  1  0.90732292  0.37546465  0.79738118  1
  P  P293  1  0.90788542  0.87541099  0.29930494  1
  P  P294  1  0.90767644  0.87456488  0.29949216  1
  P  P295  1  0.90821796  0.87475534  0.79875773  1
  P  P296  1  0.40699222  0.37563989  0.95665841  1
  P  P297  1  0.40639551  0.87349801  0.45146563  1
  P  P298  1  0.40712419  0.87441236  0.95146952  1
  P  P299  1  0.59437492  0.12200673  0.05071647  1
  P  P300  1  0.59300765  0.12436052  0.54334137  1
  P  P301  1  0.59287519  0.62558781  0.54853053  1
  P  P302  1  0.90781874  0.37531973  0.29712052  1
  P  P303  1  0.90853797  0.37499649  0.79750183  1
  P  P304  1  0.90790629  0.87511301  0.29827309  1
  P  P305  1  0.90838109  0.87543720  0.79824556  1
  P  P306  1  0.40641841  0.87361587  0.45129703  1
  P  P307  1  0.40736417  0.87474581  0.95059106  1
  P  P308  1  0.09082514  0.62445340  0.70244277  1
  P  P309  1  0.40345227  0.37465717  0.44588181  1
  P  P310  1  0.40609578  0.37450428  0.95749410  1
  P  P311  1  0.59258928  0.12390176  0.54482889  1
  P  P312  1  0.59402335  0.62702426  0.04953831  1
  P  P313  1  0.59127238  0.62254292  0.54864737  1
  P  P314  1  0.09174191  0.62554689  0.20254453  1
  P  P315  1  0.09147410  0.62546675  0.70271339  1
  P  P316  1  0.40401417  0.37497016  0.44697706  1
  P  P317  1  0.90899549  0.37506276  0.29825838  1
  P  P318  1  0.90661635  0.37441924  0.79693041  1
  P  P319  1  0.59488511  0.12162377  0.05076996  1
  P  P320  1  0.09151011  0.12478671  0.20239277  1
  P  P321  1  0.59360403  0.12349942  0.04853356  1
  P  P322  1  0.59287455  0.12441285  0.54852956  1
  P  P323  1  0.59437447  0.62799340  0.05071644  1
  P  P324  1  0.59300841  0.62563940  0.54334279  1
  P  P325  1  0.90781922  0.37468133  0.29712010  1
  P  P326  1  0.90853804  0.37500444  0.79750153  1
  P  P327  1  0.90790589  0.87488781  0.29827360  1
  P  P328  1  0.90838161  0.87456292  0.79824575  1
  P  P329  1  0.09114266  0.62547710  0.70270764  1
  P  P330  1  0.40345089  0.37534193  0.44587920  1
  P  P331  1  0.40607899  0.37549833  0.95749424  1
  P  P332  1  0.40641678  0.87638294  0.45129655  1
  P  P333  1  0.40736346  0.87525765  0.95059306  1
  P  P334  1  0.59422632  0.12251797  0.05011128  1
  P  P335  1  0.59019259  0.12874948  0.54873085  1
  P  P336  1  0.59488411  0.62837655  0.05077054  1
  P  P337  1  0.09076513  0.12478649  0.70271379  1
  P  P338  1  0.09106699  0.62499184  0.20190338  1
  P  P339  1  0.09044978  0.62478036  0.70252449  1
  P  P340  1  0.40385012  0.37491001  0.44603548  1
  P  P341  1  0.40460902  0.37493458  0.95870592  1
  P  P342  1  0.40654786  0.87452175  0.45126478  1
  P  P343  1  0.40713977  0.87494538  0.95070496  1
  P  P344  1  0.59464539  0.12183095  0.05032619  1
  P  P345  1  0.59121263  0.12857510  0.54763938  1
  P  P346  1  0.59427138  0.62752470  0.04996113  1
  P  P347  1  0.90746955  0.87500026  0.79849731  1
  P  P348  1  0.09106945  0.12500588  0.20190454  1
  P  P349  1  0.09045078  0.12522030  0.70252324  1
  P  P350  1  0.09150847  0.62521366  0.20239296  1
  P  P351  1  0.09076490  0.62521317  0.70271472  1
  P  P352  1  0.40384912  0.37508875  0.44603492  1
  P  P353  1  0.40461040  0.37506466  0.95870263  1
  P  P354  1  0.40654769  0.87547739  0.45126530  1
  P  P355  1  0.40714077  0.87505452  0.95070660  1
  P  P356  1  0.59427042  0.12247512  0.04996126  1
  P  P357  1  0.90661740  0.37557760  0.79693470  1
  P  P358  1  0.90767643  0.87543706  0.29949229  1
  P  P359  1  0.90821797  0.87524487  0.79875810  1
  P  P360  1  0.09217480  0.12528444  0.20090074  1
  P  P361  1  0.09114212  0.12580611  0.70192144  1
  P  P362  1  0.09217404  0.62471440  0.20090104  1
  P  P363  1  0.09114176  0.62419344  0.70192187  1
  P  P364  1  0.40401416  0.37502785  0.44697692  1
  P  P365  1  0.40712916  0.37432849  0.95645742  1
  P  P366  1  0.40641331  0.87304263  0.45128854  1
  P  P367  1  0.40758489  0.87447724  0.95065804  1
  P  P368  1  0.59482586  0.12181825  0.05073320  1
  P  P369  1  0.59198836  0.12571450  0.54577782  1
  P  P370  1  0.59422531  0.62748116  0.05011320  1
  P  P371  1  0.59019319  0.62125029  0.54873317  1
  P  P372  1  0.59198892  0.62428884  0.54578083  1
  P  P373  1  0.90899456  0.37493914  0.29825690  1
  P  P374  1  0.58959642  0.13035093  0.54956459  1
  P  P375  1  0.59464441  0.62816920  0.05032707  1
  P  P376  1  0.59121509  0.62142173  0.54764369  1
  P  P377  1  0.90994982  0.37496637  0.29750746  1
  P  P378  1  0.90615881  0.37548148  0.79610700  1
  P  P379  1  0.90740233  0.87520178  0.29960012  1
  P  P380  1  0.90782653  0.87522146  0.79866089  1
  P  P381  1  0.09150268  0.12520305  0.20138826  1
  P  P382  1  0.09082577  0.12554659  0.70244091  1
  P  P383  1  0.09160100  0.62535736  0.20237706  1
  P  P384  1  0.40460169  0.37500034  0.95826946  1
  P  P385  1  0.40666354  0.87499883  0.45144293  1
  P  P386  1  0.40710610  0.87500053  0.95079864  1
  P  P387  1  0.59436303  0.12200219  0.05015639  1
  P  P388  1  0.59004143  0.13109552  0.54964799  1
  P  P389  1  0.59436335  0.62799876  0.05015579  1
  P  P390  1  0.59004210  0.61890374  0.54964890  1
  P  P391  1  0.91024716  0.37500088  0.29742953  1
  P  P392  1  0.90606816  0.37500040  0.79587145  1
  P  P393  1  0.90732398  0.87500081  0.29967626  1
  P  P394  1  0.58959825  0.61965040  0.54956786  1
  P  P395  1  0.90995080  0.37503624  0.29750731  1
  P  P396  1  0.90615698  0.37451755  0.79610504  1
  P  P397  1  0.90740237  0.87480083  0.29959944  1
  P  P398  1  0.90782645  0.87477917  0.79865977  1
  P  P399  1  0.09134465  0.12486860  0.20236336  1
  P  P400  1  0.09033203  0.12496544  0.70275631  1
  P  P401  1  0.09134386  0.62513042  0.20236414  1
  P  P402  1  0.09033189  0.62503467  0.70275707  1
  P  P403  1  0.40387868  0.37500005  0.44561830  1
  P  P404  1  0.90844825  0.87524894  0.79880022  1
  P  P405  1  0.09209476  0.12511223  0.20172747  1
  P  P406  1  0.09161928  0.12543680  0.70175467  1
  P  P407  1  0.09218263  0.62531876  0.20288053  1
  P  P408  1  0.09146264  0.62499563  0.70249972  1
  P  P409  1  0.40562524  0.37200684  0.44928368  1
  P  P410  1  0.40699140  0.37436098  0.95665762  1
  P  P411  1  0.40639567  0.87650053  0.45146587  1
  P  P412  1  0.40712470  0.87558734  0.95146993  1
  P  P413  1  0.90795476  0.37521788  0.29830349  1
  P  P414  1  0.90732248  0.37453505  0.79738062  1
  P  P415  1  0.90788551  0.87459102  0.29930519  1
  P  P416  1  0.90844824  0.87475147  0.79879991  1
  P  P417  1  0.09160149  0.12464204  0.20237620  1
  P  P418  1  0.09114225  0.12452218  0.70270734  1
  P  P419  1  0.09150044  0.62479290  0.20138448  1
  P  P420  1  0.59360399  0.62650222  0.04853333  1
  P  P421  1  0.09174299  0.12445230  0.20254341  1
  P  P422  1  0.09147408  0.12453296  0.70271303  1
  O  O423  1  0.09796746  0.12391719  0.36465454  1
  O  O424  1  0.09698144  0.12437259  0.86443907  1
  O  O425  1  0.39795560  0.87060348  0.61251908  1
  O  O426  1  0.16091443  0.02553533  0.13562572  1
  O  O427  1  0.15964091  0.02488780  0.63677659  1
  O  O428  1  0.15969567  0.52479009  0.13522140  1
  O  O429  1  0.15922224  0.52461142  0.63545327  1
  O  O430  1  0.90149638  0.87488125  0.13661724  1
  O  O431  1  0.90233388  0.87497906  0.63641324  1
  O  O432  1  0.04817959  0.37511353  0.35856055  1
  O  O433  1  0.04876026  0.37514474  0.85875421  1
  O  O434  1  0.04854785  0.87458267  0.35886294  1
  O  O435  1  0.83926723  0.77560348  0.36648616  1
  O  O436  1  0.84028720  0.77520676  0.86497630  1
  O  O437  1  0.84137978  0.47532575  0.36212500  1
  O  O438  1  0.83831058  0.47525229  0.86294217  1
  O  O439  1  0.83912671  0.97476779  0.36647858  1
  O  O440  1  0.83994673  0.97501272  0.86520167  1
  O  O441  1  0.90321340  0.37463724  0.13597587  1
  O  O442  1  0.90211056  0.37539780  0.63410821  1
  O  O443  1  0.90094062  0.87526423  0.13791806  1
  O  O444  1  0.90021571  0.87541136  0.63694961  1
  O  O445  1  0.33094709  0.27720677  0.89656459  1
  O  O446  1  0.90257204  0.37564410  0.13657730  1
  O  O447  1  0.90200670  0.37464487  0.63550714  1
  O  O448  1  0.90143116  0.87433621  0.13763178  1
  O  O449  1  0.09850316  0.62511803  0.36338346  1
  O  O450  1  0.09766519  0.62501994  0.86358879  1
  O  O451  1  0.83926198  0.27512302  0.36192528  1
  O  O452  1  0.83934968  0.27548639  0.86277109  1
  O  O453  1  0.83929176  0.77561677  0.36483660  1
  O  O454  1  0.65746611  0.52144417  0.61533066  1
  O  O455  1  0.15970397  0.22479469  0.13740077  1
  O  O456  1  0.16012130  0.22419282  0.63716515  1
  O  O457  1  0.16089956  0.72404446  0.13424085  1
  O  O458  1  0.15915416  0.72396404  0.63534650  1
  O  O459  1  0.95093830  0.12462032  0.64120463  1
  O  O460  1  0.95182153  0.62511560  0.14144046  1
  O  O461  1  0.95124073  0.62514768  0.64124574  1
  O  O462  1  0.45245831  0.12470561  0.10798450  1
  O  O463  1  0.45228048  0.12433082  0.60888314  1
  O  O464  1  0.45290806  0.62504238  0.10895601  1
  O  O465  1  0.45293402  0.63101956  0.60001141  1
  O  O466  1  0.54709135  0.37495760  0.39104394  1
  O  O467  1  0.54706552  0.36898090  0.89998838  1
  O  O468  1  0.54754161  0.87529437  0.39201526  1
  O  O469  1  0.33914379  0.77629728  0.38395602  1
  O  O470  1  0.33869481  0.77502450  0.88560509  1
  O  O471  1  0.33591344  0.47586932  0.38046002  1
  O  O472  1  0.32967051  0.47243149  0.89727629  1
  O  O473  1  0.33894219  0.97608648  0.38307696  1
  O  O474  1  0.33884612  0.97560707  0.88527852  1
  O  O475  1  0.90210936  0.37460201  0.63410623  1
  O  O476  1  0.90094016  0.87474131  0.13791790  1
  O  O477  1  0.90021508  0.87459079  0.63694830  1
  O  O478  1  0.04991790  0.37484396  0.35907060  1
  O  O479  1  0.04632445  0.37495750  0.85782116  1
  O  O480  1  0.04864859  0.87484263  0.35867083  1
  O  O481  1  0.04893326  0.87472432  0.85816743  1
  O  O482  1  0.40019078  0.37453376  0.12217188  1
  O  O483  1  0.39319053  0.37596673  0.60668896  1
  O  O484  1  0.40029139  0.87464655  0.11210066  1
  O  O485  1  0.83943724  0.97501604  0.36638494  1
  O  O486  1  0.84018416  0.97497358  0.86547294  1
  O  O487  1  0.90257120  0.37436394  0.13657815  1
  O  O488  1  0.90183969  0.37569323  0.63505167  1
  O  O489  1  0.90123778  0.87560835  0.13780443  1
  O  O490  1  0.33868874  0.97314274  0.38444082  1
  O  O491  1  0.33914276  0.97370328  0.38395624  1
  O  O492  1  0.33869394  0.97497997  0.88560067  1
  O  O493  1  0.95109477  0.12443498  0.14166738  1
  O  O494  1  0.95073844  0.12467829  0.64183424  1
  O  O495  1  0.95080725  0.62506732  0.14121849  1
  O  O496  1  0.94997558  0.62412065  0.64235416  1
  O  O497  1  0.45309165  0.12512706  0.10843212  1
  O  O498  1  0.45129331  0.11848479  0.60071429  1
  O  O499  1  0.45261104  0.62473806  0.10857346  1
  O  O500  1  0.16057776  0.02605043  0.13508967  1
  O  O501  1  0.15741882  0.02490167  0.63583050  1
  O  O502  1  0.15960536  0.52490620  0.13719956  1
  O  O503  1  0.15942665  0.52565090  0.63692265  1
  O  O504  1  0.66288393  0.22295997  0.11441089  1
  O  O505  1  0.65395555  0.23304702  0.61531674  1
  O  O506  1  0.66011346  0.72747505  0.12240194  1
  O  O507  1  0.66325736  0.72114041  0.61258313  1
  O  O508  1  0.33637269  0.27458933  0.37974641  1
  O  O509  1  0.33206573  0.27660114  0.89627748  1
  O  O510  1  0.90073544  0.87422736  0.63707674  1
  O  O511  1  0.04924880  0.37489098  0.35935471  1
  O  O512  1  0.04701460  0.37493972  0.85813915  1
  O  O513  1  0.04883935  0.87461633  0.35875036  1
  O  O514  1  0.04927280  0.87453136  0.85830635  1
  O  O515  1  0.40040784  0.37531027  0.12077821  1
  O  O516  1  0.39181395  0.37693290  0.60636859  1
  O  O517  1  0.40030836  0.87405837  0.11204331  1
  O  O518  1  0.33799471  0.47643110  0.89035068  1
  O  O519  1  0.33757580  0.97336781  0.38582140  1
  O  O520  1  0.83887046  0.47538118  0.86354129  1
  O  O521  1  0.33900188  0.97480014  0.88580611  1
  O  O522  1  0.95121455  0.12438214  0.14179574  1
  O  O523  1  0.95125780  0.12456186  0.64149394  1
  O  O524  1  0.95123227  0.62508682  0.14112161  1
  O  O525  1  0.95023748  0.62442408  0.64194446  1
  O  O526  1  0.45312184  0.12492030  0.10855440  1
  O  O527  1  0.45213507  0.11827765  0.60052654  1
  O  O528  1  0.45256479  0.62449000  0.10824475  1
  O  O529  1  0.45042287  0.62524526  0.60650183  1
  O  O530  1  0.54576186  0.37370530  0.38968685  1
  O  O531  1  0.04991693  0.37515446  0.35907089  1
  O  O532  1  0.04632633  0.37503861  0.85782291  1
  O  O533  1  0.04864879  0.87515586  0.35867112  1
  O  O534  1  0.04893323  0.87527538  0.85816844  1
  O  O535  1  0.40019014  0.37546169  0.12216880  1
  O  O536  1  0.39318457  0.37402910  0.60668891  1
  O  O537  1  0.40029185  0.87534853  0.11210432  1
  O  O538  1  0.39650993  0.87628902  0.61189143  1
  O  O539  1  0.15933007  0.02443881  0.63653410  1
  O  O540  1  0.16005771  0.52458923  0.13465091  1
  O  O541  1  0.15883638  0.52429993  0.63560288  1
  O  O542  1  0.66267991  0.22290268  0.11447766  1
  O  O543  1  0.66912199  0.22102066  0.60415964  1
  O  O544  1  0.66038397  0.72650674  0.11968634  1
  O  O545  1  0.66199442  0.72177704  0.61391228  1
  O  O546  1  0.33629408  0.27438114  0.38222325  1
  O  O547  1  0.32888153  0.27808754  0.89762746  1
  O  O548  1  0.33918968  0.77324486  0.38306216  1
  O  O549  1  0.60562711  0.11434339  0.89029870  1
  O  O550  1  0.60083403  0.62037970  0.38746924  1
  O  O551  1  0.60427363  0.63332211  0.88957288  1
  O  O552  1  0.66011630  0.02252332  0.12240355  1
  O  O553  1  0.66326472  0.02886051  0.61258535  1
  O  O554  1  0.66288954  0.52703997  0.11441289  1
  O  O555  1  0.65395883  0.51695124  0.61531792  1
  O  O556  1  0.15960890  0.22509504  0.13720191  1
  O  O557  1  0.15942723  0.22434873  0.63691952  1
  O  O558  1  0.16057620  0.72394758  0.13508907  1
  O  O559  1  0.33900868  0.77487976  0.38297255  1
  O  O560  1  0.33821708  0.77470683  0.88569062  1
  O  O561  1  0.33637117  0.47540647  0.37973598  1
  O  O562  1  0.33205971  0.47339842  0.89627842  1
  O  O563  1  0.33938966  0.97446532  0.38351852  1
  O  O564  1  0.15741953  0.72509783  0.63582817  1
  O  O565  1  0.09677352  0.12415711  0.36432061  1
  O  O566  1  0.09640639  0.12439031  0.86465020  1
  O  O567  1  0.09677321  0.62583657  0.36432178  1
  O  O568  1  0.09640611  0.62560754  0.86465123  1
  O  O569  1  0.84164677  0.27487976  0.36260709  1
  O  O570  1  0.83788321  0.27511440  0.86252368  1
  O  O571  1  0.83909261  0.77544029  0.36658043  1
  O  O572  1  0.83985618  0.77502467  0.86483612  1
  O  O573  1  0.84164881  0.47512195  0.36260697  1
  O  O574  1  0.16073857  0.52512188  0.13807692  1
  O  O575  1  0.16065037  0.52548574  0.63723182  1
  O  O576  1  0.66242173  0.22336807  0.11417476  1
  O  O577  1  0.66136473  0.22470335  0.61317184  1
  O  O578  1  0.66086858  0.72724434  0.12212333  1
  O  O579  1  0.66200316  0.72643053  0.60964675  1
  O  O580  1  0.33913090  0.27275597  0.37787601  1
  O  O581  1  0.33799714  0.27356991  0.89035288  1
  O  O582  1  0.33757784  0.77663207  0.38582526  1
  O  O583  1  0.84077762  0.77461192  0.86455013  1
  O  O584  1  0.83926368  0.47487753  0.36192533  1
  O  O585  1  0.83935112  0.47451490  0.86276957  1
  O  O586  1  0.83929259  0.97438436  0.36483563  1
  O  O587  1  0.83977459  0.97421970  0.86438396  1
  O  O588  1  0.90203228  0.37392220  0.13534582  1
  O  O589  1  0.90301847  0.37437532  0.63556193  1
  O  O590  1  0.90149594  0.87512294  0.13661830  1
  O  O591  1  0.90233429  0.87502276  0.63641344  1
  O  O592  1  0.04817993  0.37488464  0.35856041  1
  O  O593  1  0.54832504  0.87572938  0.89064435  1
  O  O594  1  0.59969767  0.12705203  0.38693616  1
  O  O595  1  0.90133659  0.87397461  0.63709379  1
  O  O596  1  0.04837654  0.37507787  0.35917371  1
  O  O597  1  0.04761278  0.37497932  0.85859285  1
  O  O598  1  0.04895268  0.87453880  0.35876502  1
  O  O599  1  0.04943668  0.87435885  0.85849425  1
  O  O600  1  0.40077152  0.37644216  0.11947567  1
  O  O601  1  0.39216331  0.37941615  0.60721061  1
  O  O602  1  0.40066367  0.87360774  0.11220817  1
  O  O603  1  0.54837926  0.37621543  0.90203660  1
  O  O604  1  0.54799545  0.87347090  0.39282417  1
  O  O605  1  0.15946204  0.22523680  0.13689452  1
  O  O606  1  0.15916309  0.22456902  0.63632985  1
  O  O607  1  0.16088092  0.72410236  0.13530943  1
  O  O608  1  0.33842086  0.97517359  0.88568525  1
  O  O609  1  0.95110062  0.12454488  0.14154139  1
  O  O610  1  0.95023131  0.12506920  0.64206047  1
  O  O611  1  0.95068500  0.62524801  0.14106376  1
  O  O612  1  0.94969244  0.62419096  0.64231992  1
  O  O613  1  0.45298878  0.12512985  0.10859819  1
  O  O614  1  0.45014904  0.11891227  0.60112911  1
  O  O615  1  0.45260720  0.62461071  0.10840583  1
  O  O616  1  0.44848098  0.62918080  0.60277180  1
  O  O617  1  0.54552705  0.37420507  0.38805270  1
  O  O618  1  0.45260707  0.12538532  0.10840605  1
  O  O619  1  0.44848065  0.12081682  0.60277127  1
  O  O620  1  0.45298849  0.62486842  0.10860026  1
  O  O621  1  0.45014930  0.63108612  0.60113074  1
  O  O622  1  0.54552583  0.37579824  0.38804779  1
  O  O623  1  0.54739642  0.37446953  0.90833192  1
  O  O624  1  0.33869082  0.77685808  0.38444077  1
  O  O625  1  0.33900335  0.77520333  0.88580823  1
  O  O626  1  0.33629154  0.47561842  0.38222184  1
  O  O627  1  0.83788556  0.47488720  0.86252213  1
  O  O628  1  0.83909269  0.97456057  0.36658035  1
  O  O629  1  0.83985662  0.97497620  0.86483286  1
  O  O630  1  0.90292918  0.37500318  0.13602065  1
  O  O631  1  0.90216592  0.37500064  0.63386516  1
  O  O632  1  0.90091485  0.87500301  0.13798149  1
  O  O633  1  0.89987704  0.87500060  0.63676070  1
  O  O634  1  0.05015014  0.37499846  0.35900349  1
  O  O635  1  0.04607211  0.37499864  0.85800709  1
  O  O636  1  0.04861889  0.87499858  0.35864168  1
  O  O637  1  0.33863425  0.77529676  0.88682793  1
  O  O638  1  0.33716146  0.47324421  0.38705274  1
  O  O639  1  0.32960435  0.47089814  0.89745321  1
  O  O640  1  0.33916538  0.97634966  0.38358780  1
  O  O641  1  0.33810301  0.97544676  0.88595243  1
  O  O642  1  0.95145368  0.12458520  0.14113625  1
  O  O643  1  0.09648424  0.62541730  0.86443557  1
  O  O644  1  0.84137833  0.27467667  0.36212407  1
  O  O645  1  0.83830700  0.27474624  0.86294060  1
  O  O646  1  0.83912688  0.77523452  0.36648008  1
  O  O647  1  0.83994749  0.77498822  0.86520534  1
  O  O648  1  0.84100641  0.47454637  0.36361337  1
  O  O649  1  0.83732235  0.47439125  0.86213386  1
  O  O650  1  0.83926776  0.97439905  0.36648350  1
  O  O651  1  0.84028559  0.97479281  0.86497256  1
  O  O652  1  0.90321125  0.37537160  0.13597589  1
  O  O653  1  0.15922388  0.22538814  0.63545226  1
  O  O654  1  0.16091628  0.72446391  0.13562595  1
  O  O655  1  0.15964269  0.72511069  0.63677549  1
  O  O656  1  0.16089993  0.02595564  0.13423954  1
  O  O657  1  0.15915402  0.02603607  0.63534682  1
  O  O658  1  0.15970207  0.52520459  0.13740306  1
  O  O659  1  0.16012067  0.52580662  0.63716803  1
  O  O660  1  0.66273843  0.22333426  0.11398036  1
  O  O661  1  0.65746304  0.22855407  0.61532796  1
  O  O662  1  0.66082421  0.72739230  0.12255296  1
  O  O663  1  0.66198032  0.72666712  0.61135191  1
  O  O664  1  0.33732176  0.27486098  0.37845365  1
  O  O665  1  0.34025110  0.27513036  0.88874337  1
  O  O666  1  0.09730862  0.12383479  0.36421295  1
  O  O667  1  0.09702197  0.12396199  0.86458209  1
  O  O668  1  0.09721456  0.62518456  0.36326169  1
  O  O669  1  0.09723177  0.62498055  0.86426276  1
  O  O670  1  0.84062061  0.27447556  0.36229954  1
  O  O671  1  0.66200456  0.02356923  0.60964933  1
  O  O672  1  0.66242427  0.52663318  0.11417831  1
  O  O673  1  0.66136806  0.52529655  0.61317533  1
  O  O674  1  0.16073911  0.22487734  0.13807590  1
  O  O675  1  0.16065224  0.22451375  0.63723059  1
  O  O676  1  0.16070989  0.72438345  0.13516557  1
  O  O677  1  0.16022733  0.72421894  0.63561593  1
  O  O678  1  0.09748168  0.12361448  0.36433133  1
  O  O679  1  0.09712318  0.12395517  0.86463757  1
  O  O680  1  0.09812063  0.62477679  0.36266052  1
  O  O681  1  0.09806986  0.62449825  0.86365899  1
  O  O682  1  0.83970070  0.27460032  0.36231700  1
  O  O683  1  0.83922316  0.27477636  0.86349843  1
  O  O684  1  0.83955021  0.77500574  0.36609356  1
  O  O685  1  0.84011999  0.77514456  0.86551125  1
  O  O686  1  0.04876032  0.37485218  0.85875389  1
  O  O687  1  0.04854723  0.87541516  0.35886344  1
  O  O688  1  0.04906294  0.87537954  0.85879477  1
  O  O689  1  0.40110852  0.37261603  0.11959546  1
  O  O690  1  0.54771859  0.87566887  0.89111639  1
  O  O691  1  0.59897790  0.12332236  0.38682211  1
  O  O692  1  0.83856609  0.27592645  0.36542923  1
  O  O693  1  0.83885445  0.27539103  0.86313605  1
  O  O694  1  0.83995030  0.77561459  0.36598685  1
  O  O695  1  0.84108798  0.77512558  0.86491651  1
  O  O696  1  0.83970106  0.47540037  0.36231666  1
  O  O697  1  0.83922373  0.47522354  0.86349670  1
  O  O698  1  0.83954981  0.97499524  0.36609379  1
  O  O699  1  0.84011990  0.97485530  0.86550935  1
  O  O700  1  0.90209992  0.37392366  0.13656148  1
  O  O701  1  0.90200743  0.37535581  0.63550749  1
  O  O702  1  0.65997937  0.72730815  0.12199375  1
  O  O703  1  0.66360115  0.71803168  0.61337258  1
  O  O704  1  0.33602145  0.27443807  0.37987255  1
  O  O705  1  0.33138155  0.27680497  0.89640933  1
  O  O706  1  0.33938348  0.77517792  0.38350828  1
  O  O707  1  0.33824162  0.77478986  0.88580546  1
  O  O708  1  0.33601801  0.47556252  0.37986985  1
  O  O709  1  0.33137744  0.47319571  0.89640702  1
  O  O710  1  0.33938216  0.97482226  0.38350792  1
  O  O711  1  0.33823901  0.97521247  0.88580406  1
  O  O712  1  0.33884935  0.77439781  0.88527968  1
  O  O713  1  0.33670442  0.47522094  0.37886731  1
  O  O714  1  0.33773255  0.47416488  0.89166655  1
  O  O715  1  0.39663647  0.87221668  0.61198121  1
  O  O716  1  0.16096258  0.02576305  0.13530342  1
  O  O717  1  0.15879695  0.02442300  0.63632425  1
  O  O718  1  0.15975278  0.52470520  0.13559177  1
  O  O719  1  0.15926729  0.52491841  0.63622653  1
  O  O720  1  0.66296519  0.22258287  0.11457327  1
  O  O721  1  0.66533721  0.22429643  0.60651825  1
  O  O722  1  0.83856730  0.47407400  0.36542951  1
  O  O723  1  0.83885526  0.47460863  0.86313370  1
  O  O724  1  0.83995024  0.97438686  0.36598677  1
  O  O725  1  0.84108790  0.97487463  0.86491408  1
  O  O726  1  0.90210004  0.37608130  0.13656170  1
  O  O727  1  0.66283555  0.22324418  0.11294337  1
  O  O728  1  0.90203096  0.37608258  0.13534634  1
  O  O729  1  0.90301877  0.37562653  0.63556235  1
  O  O730  1  0.66083214  0.72634965  0.11640932  1
  O  O731  1  0.66189479  0.72544659  0.61404446  1
  O  O732  1  0.95081148  0.12493503  0.14121782  1
  O  O733  1  0.94997568  0.12588255  0.64235479  1
  O  O734  1  0.95109441  0.62556912  0.14166872  1
  O  O735  1  0.95073923  0.62532448  0.64183382  1
  O  O736  1  0.45261078  0.12525370  0.10856936  1
  O  O737  1  0.44922790  0.12320306  0.60421895  1
  O  O738  1  0.45309112  0.62487181  0.10843404  1
  O  O739  1  0.45129255  0.63151538  0.60071492  1
  O  O740  1  0.54542696  0.37623709  0.38910158  1
  O  O741  1  0.54832072  0.37530413  0.90521554  1
  O  O742  1  0.60256070  0.11826566  0.88861751  1
  O  O743  1  0.59954352  0.62786139  0.38202955  1
  O  O744  1  0.39651217  0.87370369  0.61189101  1
  O  O745  1  0.16088029  0.02589840  0.13530832  1
  O  O746  1  0.15818033  0.02464504  0.63616054  1
  O  O747  1  0.15945450  0.52476099  0.13688980  1
  O  O748  1  0.15916242  0.52543172  0.63633467  1
  O  O749  1  0.66306612  0.22257486  0.11418009  1
  O  O750  1  0.65998615  0.22905478  0.61029492  1
  O  O751  1  0.65994311  0.72697585  0.12135770  1
  O  O752  1  0.66334194  0.71829924  0.61371317  1
  O  O753  1  0.33583085  0.27438770  0.38067107  1
  O  O754  1  0.54832521  0.87427621  0.89064400  1
  O  O755  1  0.59954049  0.12214614  0.38202760  1
  O  O756  1  0.60635477  0.11387518  0.89085741  1
  O  O757  1  0.59969966  0.62295310  0.38693797  1
  O  O758  1  0.60256122  0.63173907  0.88861806  1
  O  O759  1  0.66082606  0.02260680  0.12255595  1
  O  O760  1  0.66198331  0.02333294  0.61135134  1
  O  O761  1  0.66274097  0.52666501  0.11398288  1
  O  O762  1  0.90183891  0.37430796  0.63504841  1
  O  O763  1  0.90123336  0.87439068  0.13780460  1
  O  O764  1  0.15818159  0.72535410  0.63615944  1
  O  O765  1  0.09721415  0.12480903  0.36326427  1
  O  O766  1  0.09723212  0.12502034  0.86426265  1
  O  O767  1  0.09730949  0.62615951  0.36421387  1
  O  O768  1  0.09702251  0.62603652  0.86458145  1
  O  O769  1  0.83965004  0.27590816  0.36491404  1
  O  O770  1  0.83801141  0.27557650  0.86285940  1
  O  O771  1  0.83961204  0.77574771  0.36622808  1
  O  O772  1  0.84071802  0.77522990  0.86501043  1
  O  O773  1  0.84062251  0.47552672  0.36230071  1
  O  O774  1  0.39419636  0.36387085  0.60916932  1
  O  O775  1  0.40102138  0.87667873  0.11317740  1
  O  O776  1  0.39795632  0.87939135  0.61251949  1
  O  O777  1  0.16070875  0.02561597  0.13516522  1
  O  O778  1  0.16022651  0.02577928  0.63561723  1
  O  O779  1  0.16101456  0.72446732  0.13542640  1
  O  O780  1  0.15933106  0.72556119  0.63653377  1
  O  O781  1  0.09850312  0.12487654  0.36338329  1
  O  O782  1  0.09766570  0.12497640  0.86358768  1
  O  O783  1  0.09796922  0.62607781  0.36465474  1
  O  O784  1  0.09698073  0.62562388  0.86443991  1
  O  O785  1  0.83908576  0.27553656  0.36437589  1
  O  O786  1  0.84035934  0.27488915  0.86322673  1
  O  O787  1  0.84030583  0.77479029  0.36478022  1
  O  O788  1  0.60204329  0.12060850  0.88747980  1
  O  O789  1  0.59889097  0.62738404  0.38040516  1
  O  O790  1  0.60580339  0.63612969  0.89083092  1
  O  O791  1  0.66083442  0.02365053  0.11641154  1
  O  O792  1  0.66189647  0.02455375  0.61404731  1
  O  O793  1  0.66283770  0.52675570  0.11294704  1
  O  O794  1  0.67039589  0.52910246  0.60254702  1
  O  O795  1  0.15969602  0.22520961  0.13522144  1
  O  O796  1  0.90143168  0.87566994  0.13763110  1
  O  O797  1  0.90133680  0.87602745  0.63709440  1
  O  O798  1  0.04837643  0.37491886  0.35917356  1
  O  O799  1  0.04761311  0.37501781  0.85859362  1
  O  O800  1  0.04895285  0.87545908  0.35876451  1
  O  O801  1  0.04943689  0.87563916  0.85849410  1
  O  O802  1  0.40077172  0.37355521  0.11947587  1
  O  O803  1  0.39216321  0.37057871  0.60721075  1
  O  O804  1  0.40066416  0.87638814  0.11220861  1
  O  O805  1  0.39692981  0.87883395  0.61204142  1
  O  O806  1  0.66304868  0.22263084  0.11400935  1
  O  O807  1  0.65432865  0.23359353  0.61470188  1
  O  O808  1  0.84036078  0.47511238  0.86322467  1
  O  O809  1  0.84030686  0.97521036  0.36477924  1
  O  O810  1  0.84077803  0.97538784  0.86454852  1
  O  O811  1  0.67039084  0.22089766  0.60254307  1
  O  O812  1  0.04906234  0.87461770  0.85879417  1
  O  O813  1  0.40111020  0.37738074  0.11959607  1
  O  O814  1  0.39419609  0.38612664  0.60916925  1
  O  O815  1  0.40102086  0.87331728  0.11317712  1
  O  O816  1  0.32969378  0.27757197  0.89727594  1
  O  O817  1  0.33894575  0.77391427  0.38307803  1
  O  O818  1  0.95095807  0.12469248  0.14151103  1
  O  O819  1  0.94975611  0.12554500  0.64216401  1
  O  O820  1  0.95095745  0.62531147  0.14151126  1
  O  O821  1  0.94975641  0.62445804  0.64216304  1
  O  O822  1  0.45276724  0.12510743  0.10881530  1
  O  O823  1  0.44889980  0.12051104  0.60236750  1
  O  O824  1  0.45276805  0.62489064  0.10881578  1
  O  O825  1  0.44889989  0.62948629  0.60236804  1
  O  O826  1  0.54549874  0.37500095  0.38738227  1
  O  O827  1  0.54749741  0.37500246  0.90829294  1
  O  O828  1  0.32887596  0.47191333  0.89762543  1
  O  O829  1  0.33918672  0.97675555  0.38306073  1
  O  O830  1  0.33902507  0.97569075  0.88516001  1
  O  O831  1  0.54866675  0.87500021  0.39403225  1
  O  O832  1  0.54775407  0.87500220  0.89032105  1
  O  O833  1  0.60104093  0.12944014  0.38732928  1
  O  O834  1  0.60459323  0.11494479  0.88998796  1
  O  O835  1  0.60104376  0.62056457  0.38733024  1
  O  O836  1  0.60459199  0.63505960  0.88998703  1
  O  O837  1  0.65998230  0.02269190  0.12199588  1
  O  O838  1  0.66360406  0.03196709  0.61337206  1
  O  O839  1  0.66305085  0.52736878  0.11401189  1
  O  O840  1  0.65433076  0.51640424  0.61470529  1
  O  O841  1  0.90073608  0.87577281  0.63707688  1
  O  O842  1  0.04924874  0.37510569  0.35935519  1
  O  O843  1  0.04701816  0.37505597  0.85813918  1
  O  O844  1  0.04883955  0.87538303  0.35875000  1
  O  O845  1  0.04927257  0.87546824  0.85830693  1
  O  O846  1  0.40040348  0.37468416  0.12077972  1
  O  O847  1  0.39181147  0.37305844  0.60636574  1
  O  O848  1  0.40031037  0.87593946  0.11204561  1
  O  O849  1  0.39663299  0.87777544  0.61198043  1
  O  O850  1  0.44922822  0.62679518  0.60421997  1
  O  O851  1  0.54542849  0.37376333  0.38910362  1
  O  O852  1  0.54834868  0.37472325  0.90523676  1
  O  O853  1  0.54820614  0.87350101  0.39338077  1
  O  O854  1  0.54805586  0.87441679  0.89043191  1
  O  O855  1  0.59976670  0.12356871  0.38300946  1
  O  O856  1  0.60634456  0.11362318  0.89090125  1
  O  O857  1  0.60019147  0.62169797  0.38685595  1
  O  O858  1  0.60374795  0.63354241  0.88956749  1
  O  O859  1  0.66050584  0.02235635  0.12278793  1
  O  O860  1  0.95123344  0.12491592  0.14112022  1
  O  O861  1  0.15953646  0.22513672  0.13713967  1
  O  O862  1  0.15899245  0.22445581  0.63672052  1
  O  O863  1  0.16080993  0.72403355  0.13542305  1
  O  O864  1  0.15763213  0.72518215  0.63601995  1
  O  O865  1  0.09635476  0.12419084  0.36385005  1
  O  O866  1  0.09648836  0.12458412  0.86443428  1
  O  O867  1  0.09703724  0.62604572  0.36428834  1
  O  O868  1  0.09672307  0.62574536  0.86460788  1
  O  O869  1  0.84100247  0.27545652  0.36361314  1
  O  O870  1  0.83732543  0.27560804  0.86214050  1
  O  O871  1  0.66027076  0.72676958  0.12137071  1
  O  O872  1  0.66234342  0.72009883  0.61372747  1
  O  O873  1  0.33591680  0.27413193  0.38046307  1
  O  O874  1  0.83886886  0.27461883  0.86354374  1
  O  O875  1  0.83943651  0.77498625  0.36638745  1
  O  O876  1  0.84018450  0.77502658  0.86547621  1
  O  O877  1  0.83965268  0.47409361  0.36491389  1
  O  O878  1  0.83801105  0.47442241  0.86285435  1
  O  O879  1  0.83961211  0.97425442  0.36622587  1
  O  O880  1  0.84071687  0.97477019  0.86500603  1
  O  O881  1  0.16058390  0.02604376  0.13464837  1
  O  O882  1  0.15817223  0.02547691  0.63570060  1
  O  O883  1  0.15953824  0.52503732  0.13708816  1
  O  O884  1  0.15978852  0.52584744  0.63703756  1
  O  O885  1  0.66257219  0.22326485  0.11410992  1
  O  O886  1  0.65599008  0.23054808  0.61505258  1
  O  O887  1  0.66050263  0.72764373  0.12278406  1
  O  O888  1  0.66239275  0.72449439  0.61189490  1
  O  O889  1  0.33670598  0.27477951  0.37886581  1
  O  O890  1  0.33772627  0.27583196  0.89167052  1
  O  O891  1  0.45228154  0.62566647  0.60888528  1
  O  O892  1  0.54709126  0.37504405  0.39104385  1
  O  O893  1  0.54706635  0.38102128  0.89998959  1
  O  O894  1  0.54754157  0.87470693  0.39201539  1
  O  O895  1  0.54771781  0.87433401  0.89111530  1
  O  O896  1  0.59888952  0.12261996  0.38040359  1
  O  O897  1  0.60580280  0.11387291  0.89083116  1
  O  O898  1  0.59897851  0.62668337  0.38682321  1
  O  O899  1  0.60204387  0.62939735  0.88747969  1
  O  O900  1  0.66087217  0.02275551  0.12212728  1
  O  O901  1  0.54739548  0.37553512  0.90833711  1
  O  O902  1  0.54849326  0.87414084  0.39381007  1
  O  O903  1  0.54776715  0.87450854  0.89025031  1
  O  O904  1  0.60068677  0.12661472  0.38503311  1
  O  O905  1  0.45213583  0.63172082  0.60052793  1
  O  O906  1  0.54576170  0.37629658  0.38968723  1
  O  O907  1  0.54837757  0.37378857  0.90203519  1
  O  O908  1  0.54799542  0.87653154  0.39282440  1
  O  O909  1  0.54849303  0.87586089  0.39381062  1
  O  O910  1  0.54777009  0.87549348  0.89025090  1
  O  O911  1  0.60082958  0.12962635  0.38746580  1
  O  O912  1  0.60427664  0.11667949  0.88957353  1
  O  O913  1  0.60068890  0.62338557  0.38503693  1
  O  O914  1  0.60562494  0.63565806  0.89029924  1
  O  O915  1  0.65994692  0.02302324  0.12135898  1
  O  O916  1  0.66334242  0.03170110  0.61371141  1
  O  O917  1  0.66306690  0.52742349  0.11418178  1
  O  O918  1  0.66000622  0.52093866  0.61029208  1
  O  O919  1  0.33939184  0.77553606  0.38351817  1
  O  O920  1  0.33842237  0.77482603  0.88568687  1
  O  O921  1  0.33583228  0.47561321  0.38066493  1
  O  O922  1  0.33094366  0.47279291  0.89656069  1
  O  O923  1  0.33900535  0.97512072  0.38297338  1
  O  O924  1  0.33821482  0.97529492  0.88568753  1
  O  O925  1  0.95068693  0.12475607  0.14106592  1
  O  O926  1  0.94969210  0.12581332  0.64232182  1
  O  O927  1  0.95109913  0.62546007  0.14154166  1
  O  O928  1  0.95023150  0.62493403  0.64206052  1
  O  O929  1  0.66239849  0.02550766  0.61188695  1
  O  O930  1  0.66258819  0.52673938  0.11411440  1
  O  O931  1  0.65599178  0.51944949  0.61505625  1
  O  O932  1  0.15953977  0.22496260  0.13708782  1
  O  O933  1  0.15978900  0.22415143  0.63703547  1
  O  O934  1  0.16058218  0.72395525  0.13464952  1
  O  O935  1  0.15817318  0.72452273  0.63569863  1
  O  O936  1  0.09703778  0.12394869  0.36428765  1
  O  O937  1  0.09672426  0.12425279  0.86460705  1
  O  O938  1  0.09635304  0.62580071  0.36384884  1
  O  O939  1  0.66296494  0.52741607  0.11457605  1
  O  O940  1  0.66534339  0.52570506  0.60651640  1
  O  O941  1  0.15975888  0.22529197  0.13559564  1
  O  O942  1  0.15926956  0.22508053  0.63622282  1
  O  O943  1  0.16096242  0.72423723  0.13530393  1
  O  O944  1  0.15879796  0.72557662  0.63632290  1
  O  O945  1  0.09812159  0.12521651  0.36266032  1
  O  O946  1  0.09807011  0.12549865  0.86365880  1
  O  O947  1  0.09748042  0.62637981  0.36433244  1
  O  O948  1  0.09712277  0.62604222  0.86463769  1
  O  O949  1  0.66912648  0.52897870  0.60416058  1
  O  O950  1  0.16005942  0.22540991  0.13464983  1
  O  O951  1  0.15883791  0.22569925  0.63560002  1
  O  O952  1  0.15899246  0.52554489  0.63672185  1
  O  O953  1  0.33716465  0.27675602  0.38705598  1
  O  O954  1  0.32960853  0.27910310  0.89745661  1
  O  O955  1  0.33916726  0.77364993  0.38359071  1
  O  O956  1  0.33810502  0.77455373  0.88595452  1
  O  O957  1  0.33912746  0.47724426  0.37787296  1
  O  O958  1  0.33902730  0.77431279  0.88516102  1
  O  O959  1  0.33731867  0.47513853  0.37845288  1
  O  O960  1  0.34024732  0.47487039  0.88874096  1
  O  O961  1  0.83977308  0.77578060  0.86438607  1
  O  O962  1  0.83908665  0.47446388  0.36437618  1
  O  O963  1  0.33863137  0.97470401  0.88682534  1
  O  O964  1  0.95182101  0.12488696  0.14143918  1
  O  O965  1  0.95124073  0.12485491  0.64124516  1
  O  O966  1  0.95145401  0.62541721  0.14113589  1
  O  O967  1  0.95093814  0.62538204  0.64120605  1
  O  O968  1  0.45290872  0.12495608  0.10895612  1
  O  O969  1  0.45293314  0.11897901  0.60000963  1
  O  O970  1  0.45245809  0.62529310  0.10798385  1
  O  O971  1  0.39693170  0.87115876  0.61204192  1
  O  O972  1  0.16101444  0.02553247  0.13542460  1
  O  O973  1  0.95023798  0.12557822  0.64194376  1
  O  O974  1  0.95121372  0.62562100  0.14179670  1
  O  O975  1  0.95125792  0.62544106  0.64149442  1
  O  O976  1  0.45256506  0.12550725  0.10824390  1
  O  O977  1  0.45042257  0.12475129  0.60649945  1
  O  O978  1  0.45312114  0.62507853  0.10855437  1
  O  O979  1  0.54820501  0.87650142  0.39338163  1
  O  O980  1  0.54805522  0.87559145  0.89043421  1
  O  O981  1  0.60018661  0.12830781  0.38685280  1
  O  O982  1  0.60374978  0.11646282  0.88956476  1
  O  O983  1  0.59977166  0.62644379  0.38301385  1
  O  O984  1  0.60634263  0.63638118  0.89090158  1
  O  O985  1  0.66027701  0.02322934  0.12137211  1
  O  O986  1  0.66234611  0.02990029  0.61372660  1
  O  O987  1  0.60635442  0.63612847  0.89085776  1
  O  O988  1  0.66038690  0.02349273  0.11968845  1
  O  O989  1  0.66199647  0.02822166  0.61391273  1
  O  O990  1  0.66268200  0.52709688  0.11447995  1
  O  O991  1  0.40036385  0.37499881  0.12180377  1
  O  O992  1  0.39213153  0.37499850  0.60618919  1
  O  O993  1  0.40034543  0.87499698  0.11219319  1
  O  O994  1  0.39675844  0.87499521  0.61207576  1
  O  O995  1  0.16081046  0.02596639  0.13542243  1
  O  O996  1  0.15763111  0.02481765  0.63602169  1
  O  O997  1  0.15953420  0.52486246  0.13713995  1
  O  O998  1  0.04865272  0.87499941  0.85797276  1
