# generated using pymatgen
data_Li133Fe144(PO4)144
_symmetry_space_group_name_H-M   'P 1'
_cell_length_a   10.44138714
_cell_length_b   12.14559294
_cell_length_c   9.53207072
_cell_angle_alpha   89.99776343
_cell_angle_beta   90.00002074
_cell_angle_gamma   89.99918632
_symmetry_Int_Tables_number   1
_chemical_formula_structural   Li133Fe144(PO4)144
_chemical_formula_sum   'Li133 Fe144 P144 O576'
_cell_volume   1208.82706641
_cell_formula_units_Z   1
loop_
 _symmetry_equiv_pos_site_id
 _symmetry_equiv_pos_as_xyz
  1  'x, y, z'
loop_
 _atom_site_type_symbol
 _atom_site_label
 _atom_site_symmetry_multiplicity
 _atom_site_fract_x
 _atom_site_fract_y
 _atom_site_fract_z
 _atom_site_occupancy
  Li  Li0  1  -0.00011024  0.49980357  0.49971959  1
  Li  Li1  1  0.49999983  0.25000008  0.74999999  1
  Li  Li2  1  0.50009053  0.01185477  0.25580157  1
  Li  Li3  1  0.00011035  0.00019640  0.50028107  1
  Li  Li4  1  -0.00011048  0.49980358  -0.00028079  1
  Li  Li5  1  0.00047639  0.00097279  -0.00066208  1
  Li  Li6  1  -0.00047634  0.49902712  0.50066233  1
  Li  Li7  1  0.49999996  0.25000010  0.25000017  1
  Li  Li8  1  0.49999993  0.74999997  0.25000011  1
  Li  Li9  1  0.50000015  0.75000013  0.75000012  1
  Li  Li10  1  0.50088555  0.00092814  0.25330034  1
  Li  Li11  1  0.50009074  0.01185387  0.75580100  1
  Li  Li12  1  0.49911469  0.49907200  0.24669974  1
  Li  Li13  1  0.49990909  0.48814631  0.74419908  1
  Li  Li14  1  0.00099439  0.24938338  -0.00103498  1
  Li  Li15  1  -0.00099454  0.25061656  0.50103509  1
  Li  Li16  1  0.00013900  0.74980661  -0.00049340  1
  Li  Li17  1  -0.00013889  0.75019330  0.50049320  1
  Li  Li18  1  0.00294921  0.00033220  0.00071707  1
  Li  Li19  1  0.50088545  0.00092824  0.75330124  1
  Li  Li20  1  0.49990956  0.48814530  0.24419848  1
  Li  Li21  1  0.49911463  0.49907193  0.74669896  1
  Li  Li22  1  -0.00099464  0.25061667  0.00103493  1
  Li  Li23  1  0.00099440  0.24938348  0.49896529  1
  Li  Li24  1  -0.00061738  0.00014886  0.50265829  1
  Li  Li25  1  -0.00231775  0.50041245  0.00047508  1
  Li  Li26  1  0.00025772  0.50009364  0.49897436  1
  Li  Li27  1  0.50278355  0.23580706  0.30217798  1
  Li  Li28  1  0.49945396  0.74887698  0.25143944  1
  Li  Li29  1  -0.00013887  0.75019355  0.00049331  1
  Li  Li30  1  0.00013893  0.74980665  0.49950685  1
  Li  Li31  1  0.50278098  0.00567659  0.25105378  1
  Li  Li32  1  0.50029393  0.00891216  0.76062232  1
  Li  Li33  1  0.50153570  0.48817476  0.23676755  1
  Li  Li34  1  0.49635036  0.49968914  0.74784158  1
  Li  Li35  1  -0.00044988  0.25012810  -0.00063618  1
  Li  Li36  1  0.00040118  0.24986969  0.49887645  1
  Li  Li37  1  0.50045468  0.75052154  0.75062811  1
  Li  Li38  1  0.50347745  -0.00278651  0.25199412  1
  Li  Li39  1  0.49992751  0.01228120  0.76181838  1
  Li  Li40  1  0.49836314  0.49344046  0.24266805  1
  Li  Li41  1  0.49818991  0.49292106  0.74877407  1
  Li  Li42  1  0.00108697  0.24962869  0.00063353  1
  Li  Li43  1  -0.00074883  0.25014962  0.50184414  1
  Li  Li44  1  0.00013097  0.74981848  -0.00023494  1
  Li  Li45  1  -0.00021791  0.74993048  0.50028862  1
  Li  Li46  1  0.00020016  0.24982662  0.49958143  1
  Li  Li47  1  0.00005867  0.75008838  0.00002949  1
  Li  Li48  1  0.00007475  0.74998707  0.49998676  1
  Li  Li49  1  0.00291160  -0.00057912  0.00002193  1
  Li  Li50  1  -0.00106506  -0.00048156  0.50218991  1
  Li  Li51  1  -0.00312134  0.50017814  -0.00082472  1
  Li  Li52  1  0.00154731  0.50037352  0.49651883  1
  Li  Li53  1  0.49649030  0.26824746  0.63580507  1
  Li  Li54  1  0.49913560  0.74969410  0.24925587  1
  Li  Li55  1  0.50071400  0.75062029  0.74953958  1
  Li  Li56  1  -0.00047642  0.49902696  0.00066221  1
  Li  Li57  1  -0.00310916  0.50039441  -0.00076163  1
  Li  Li58  1  0.00216792  0.50067422  0.49644243  1
  Li  Li59  1  0.49820399  0.26445128  0.56966364  1
  Li  Li60  1  0.49911891  0.74987634  0.24924135  1
  Li  Li61  1  0.50078502  0.75034630  0.75035693  1
  Li  Li62  1  0.50318194  0.00524857  0.25177990  1
  Li  Li63  1  0.49822791  0.01074118  0.76315894  1
  Li  Li64  1  0.50294836  0.48840511  0.23561987  1
  Li  Li65  1  0.49653245  0.49645793  0.74758820  1
  Li  Li66  1  -0.00009296  0.24997292  -0.00029953  1
  Li  Li67  1  0.49954544  0.74947857  0.24937222  1
  Li  Li68  1  0.50054628  0.75112296  0.74856056  1
  Li  Li69  1  0.49921506  0.74965391  0.24964324  1
  Li  Li70  1  0.50088124  0.75012371  0.75075880  1
  Li  Li71  1  0.50346762  0.00354209  0.25241172  1
  Li  Li72  1  0.49705173  0.01159499  0.76438005  1
  Li  Li73  1  0.50177221  0.48925892  0.23684133  1
  Li  Li74  1  0.49681824  0.49475139  0.74822013  1
  Li  Li75  1  0.00009278  0.25002718  0.00030001  1
  Li  Li76  1  -0.00020071  0.25017329  0.50041918  1
  Li  Li77  1  -0.00005849  0.74991166  -0.00002930  1
  Li  Li78  1  -0.00007445  0.75001297  0.50001338  1
  Li  Li79  1  0.50181025  0.00707896  0.25122618  1
  Li  Li80  1  0.50163707  0.00655955  0.75733201  1
  Li  Li81  1  0.50007254  0.48771896  0.23818204  1
  Li  Li82  1  0.49652254  0.50278670  0.74800577  1
  Li  Li83  1  -0.00108690  0.25037131  -0.00063336  1
  Li  Li84  1  0.00074892  0.24985032  0.49815607  1
  Li  Li85  1  -0.00013090  0.75018158  0.00023507  1
  Li  Li86  1  0.00021792  0.75006939  0.49971152  1
  Li  Li87  1  0.00011015  0.00019640  0.00028061  1
  Li  Li88  1  0.00047653  0.00097306  0.49933787  1
  Li  Li89  1  0.49658186  0.49496134  0.74746544  1
  Li  Li90  1  -0.00000017  0.25000014  0.00000014  1
  Li  Li91  1  -0.00000034  0.25000001  0.50000018  1
  Li  Li92  1  0.00000009  0.74999996  0.00000014  1
  Li  Li93  1  0.00000016  0.74999997  0.50000007  1
  Li  Li94  1  0.00305594  -0.00050793  0.00037324  1
  Li  Li95  1  -0.00185196  -0.00062519  0.50304175  1
  Li  Li96  1  0.00009437  0.75017472  0.00004319  1
  Li  Li97  1  0.00008565  0.74998313  0.49994975  1
  Li  Li98  1  0.00231781  -0.00041231  -0.00047492  1
  Li  Li99  1  -0.00025767  -0.00009361  0.50102569  1
  Li  Li100  1  -0.00294914  0.49966772  -0.00071715  1
  Li  Li101  1  0.00061749  0.49985132  0.49734185  1
  Li  Li102  1  0.49721640  0.26419299  0.69782180  1
  Li  Li103  1  0.49928609  0.74937988  0.25046061  1
  Li  Li104  1  0.50086466  0.75030581  0.75074450  1
  Li  Li105  1  0.50364979  0.00031095  0.25215840  1
  Li  Li106  1  0.49846445  0.01182538  0.76323258  1
  Li  Li107  1  0.49970617  0.49108789  0.23937787  1
  Li  Li108  1  0.00310929  -0.00039433  0.00076184  1
  Li  Li109  1  -0.00216784  -0.00067431  0.50355769  1
  Li  Li110  1  -0.00305568  0.50050808  -0.00037316  1
  Li  Li111  1  0.00185205  0.50062509  0.49695851  1
  Li  Li112  1  0.50179491  0.23554799  0.43033652  1
  Li  Li113  1  0.00308196  -0.00041782  0.00060721  1
  Li  Li114  1  -0.00235691  -0.00073109  0.50345335  1
  Li  Li115  1  -0.00308193  0.50041790  -0.00060709  1
  Li  Li116  1  0.00235692  0.50073093  0.49654693  1
  Li  Li117  1  0.49999823  0.24999922  0.50000042  1
  Li  Li118  1  0.49914471  0.74981498  0.24940012  1
  Li  Li119  1  0.50085541  0.75018531  0.75060019  1
  Li  Li120  1  0.50341830  0.00503858  0.25253459  1
  Li  Li121  1  0.49644053  0.01143914  0.76482052  1
  Li  Li122  1  0.50355947  0.48856106  0.23517957  1
  Li  Li123  1  0.00312138  -0.00017809  0.00082460  1
  Li  Li124  1  0.49721920  0.49432343  0.74894651  1
  Li  Li125  1  0.00044995  0.24987205  0.00063656  1
  Li  Li126  1  -0.00040140  0.25013039  0.50112392  1
  Li  Li127  1  -0.00009421  0.74982562  -0.00004323  1
  Li  Li128  1  -0.00008560  0.75001663  0.50005024  1
  Li  Li129  1  -0.00154731  -0.00037353  0.50348118  1
  Li  Li130  1  -0.00291130  0.50057934  -0.00002212  1
  Li  Li131  1  0.00106521  0.50048159  0.49781018  1
  Li  Li132  1  0.50350974  0.23175213  0.36419474  1
  Fe  Fe133  1  0.27991486  0.62432573  0.48733607  1
  Fe  Fe134  1  0.28136754  0.62372429  0.98648833  1
  Fe  Fe135  1  0.21989424  0.37526961  0.23624286  1
  Fe  Fe136  1  0.22344039  0.37410567  0.74037706  1
  Fe  Fe137  1  0.21987270  0.87488501  0.23655384  1
  Fe  Fe138  1  0.77655976  0.12589444  0.75962303  1
  Fe  Fe139  1  0.78012766  0.62511498  0.26344696  1
  Fe  Fe140  1  0.78023296  0.62457840  0.76284832  1
  Fe  Fe141  1  0.78010582  0.12473033  0.26375701  1
  Fe  Fe142  1  0.71831557  0.37359663  0.01025676  1
  Fe  Fe143  1  0.27989850  0.62425002  0.98723298  1
  Fe  Fe144  1  0.21897040  0.37600213  0.23687410  1
  Fe  Fe145  1  0.27633624  0.63078054  0.48861133  1
  Fe  Fe146  1  0.27937979  0.62402944  0.98741535  1
  Fe  Fe147  1  0.21854704  0.37564259  0.23431196  1
  Fe  Fe148  1  0.21881908  0.37642186  0.74341157  1
  Fe  Fe149  1  0.22088670  0.87505950  0.23690670  1
  Fe  Fe150  1  0.22033998  0.87469447  0.73938287  1
  Fe  Fe151  1  0.78148542  0.12320826  0.25922684  1
  Fe  Fe152  1  0.78189495  0.12535628  0.76993085  1
  Fe  Fe153  1  0.72286900  0.86967941  0.51304500  1
  Fe  Fe154  1  0.27917656  0.12458056  0.49298867  1
  Fe  Fe155  1  0.28557652  0.12891660  0.98780946  1
  Fe  Fe156  1  0.22029916  0.37578192  0.74331459  1
  Fe  Fe157  1  0.22069436  0.87525530  0.23767597  1
  Fe  Fe158  1  0.22018427  0.87516082  0.73878918  1
  Fe  Fe159  1  0.78262687  0.12288881  0.26043815  1
  Fe  Fe160  1  0.78086030  0.12510258  0.76897120  1
  Fe  Fe161  1  0.77956540  0.62493686  0.26175453  1
  Fe  Fe162  1  0.77914883  0.62519435  0.76408502  1
  Fe  Fe163  1  0.28091944  0.12619116  0.48077997  1
  Fe  Fe164  1  0.28497721  0.12879183  0.98602595  1
  Fe  Fe165  1  0.27713080  0.63032050  0.48695518  1
  Fe  Fe166  1  0.27923488  0.62376208  0.98669296  1
  Fe  Fe167  1  0.21913972  0.37489734  0.23102956  1
  Fe  Fe168  1  0.21737300  0.37711158  0.73956210  1
  Fe  Fe169  1  0.22085134  0.87480567  0.23591518  1
  Fe  Fe170  1  0.22043473  0.87506331  0.73824569  1
  Fe  Fe171  1  0.77970077  0.12421813  0.25668565  1
  Fe  Fe172  1  0.77976983  0.62499223  0.26097854  1
  Fe  Fe173  1  0.77904738  0.62535296  0.76411047  1
  Fe  Fe174  1  0.71465859  0.37107499  0.01344924  1
  Fe  Fe175  1  0.72072035  0.37548601  0.51697048  1
  Fe  Fe176  1  0.72066978  0.87649763  0.01291922  1
  Fe  Fe177  1  0.72434045  0.86695147  0.51138910  1
  Fe  Fe178  1  0.27716212  0.12296425  0.48985022  1
  Fe  Fe179  1  0.28556279  0.12901991  0.98715514  1
  Fe  Fe180  1  0.27537725  0.63298012  0.48908710  1
  Fe  Fe181  1  0.27927412  0.62367703  0.98739465  1
  Fe  Fe182  1  0.22344043  0.37410618  0.24037772  1
  Fe  Fe183  1  0.21989453  0.37526979  0.73624327  1
  Fe  Fe184  1  0.21976715  0.87542176  0.23715188  1
  Fe  Fe185  1  0.21987259  0.87488479  0.73655410  1
  Fe  Fe186  1  0.71502295  0.37120836  0.01397408  1
  Fe  Fe187  1  0.71908053  0.37380890  0.51922028  1
  Fe  Fe188  1  0.72076532  0.87623775  0.01330722  1
  Fe  Fe189  1  0.71758090  0.37313049  0.51470733  1
  Fe  Fe190  1  0.72008538  0.87567467  0.01266368  1
  Fe  Fe191  1  0.71863271  0.87627580  0.51351182  1
  Fe  Fe192  1  0.28168417  0.12640352  0.48974351  1
  Fe  Fe193  1  0.28241868  0.12686955  0.98529290  1
  Fe  Fe194  1  0.21976693  0.87542167  0.73715195  1
  Fe  Fe195  1  0.78258601  0.12300467  0.26314240  1
  Fe  Fe196  1  0.78102968  0.12399778  0.76312595  1
  Fe  Fe197  1  0.77981580  0.62483949  0.26121072  1
  Fe  Fe198  1  0.77930528  0.62474502  0.76232417  1
  Fe  Fe199  1  0.71542794  0.37146796  0.01189726  1
  Fe  Fe200  1  0.71797787  0.37416142  0.50594584  1
  Fe  Fe201  1  0.72010166  0.87575021  0.01276733  1
  Fe  Fe202  1  0.72194249  0.87215965  0.51181158  1
  Fe  Fe203  1  0.28219039  0.12763992  0.48069372  1
  Fe  Fe204  1  0.28352667  0.12786525  0.98651634  1
  Fe  Fe205  1  0.27871067  0.62772653  0.48583454  1
  Fe  Fe206  1  0.21850090  0.37521343  0.23223701  1
  Fe  Fe207  1  0.21870012  0.37670219  0.74256640  1
  Fe  Fe208  1  0.22081799  0.87481391  0.23617954  1
  Fe  Fe209  1  0.22017270  0.87464403  0.73954880  1
  Fe  Fe210  1  0.78103247  0.12314777  0.25853637  1
  Fe  Fe211  1  0.78149259  0.12530150  0.76897309  1
  Fe  Fe212  1  0.77985836  0.62513800  0.26054103  1
  Fe  Fe213  1  0.77904774  0.62533291  0.76413794  1
  Fe  Fe214  1  0.71447578  0.37095555  0.01313962  1
  Fe  Fe215  1  0.72231364  0.37727423  0.51357477  1
  Fe  Fe216  1  0.78023293  0.62457870  0.26284810  1
  Fe  Fe217  1  0.78012734  0.62511516  0.76344632  1
  Fe  Fe218  1  0.71758107  0.37313057  0.01470766  1
  Fe  Fe219  1  0.71831589  0.37359661  0.51025672  1
  Fe  Fe220  1  0.71863270  0.87627517  0.01351128  1
  Fe  Fe221  1  0.72008495  0.87567442  0.51266398  1
  Fe  Fe222  1  0.28241906  0.12686968  0.48529275  1
  Fe  Fe223  1  0.28168456  0.12640326  0.98974321  1
  Fe  Fe224  1  0.28136749  0.62372475  0.48648848  1
  Fe  Fe225  1  0.27991526  0.62432547  0.98733612  1
  Fe  Fe226  1  0.77863440  0.12518270  0.76653224  1
  Fe  Fe227  1  0.77963509  0.62494846  0.26270039  1
  Fe  Fe228  1  0.77934364  0.62500166  0.76384217  1
  Fe  Fe229  1  0.71647354  0.37213464  0.01348373  1
  Fe  Fe230  1  0.71780958  0.37236015  0.51930654  1
  Fe  Fe231  1  0.72050230  0.87596353  0.01369199  1
  Fe  Fe232  1  0.72128941  0.87227354  0.51416580  1
  Fe  Fe233  1  0.28202220  0.12583880  0.49405443  1
  Fe  Fe234  1  0.28457205  0.12853192  0.98810311  1
  Fe  Fe235  1  0.27805772  0.62784045  0.48818865  1
  Fe  Fe236  1  0.27949763  0.62403659  0.98630773  1
  Fe  Fe237  1  0.22136572  0.37481722  0.23346823  1
  Fe  Fe238  1  0.21741389  0.37699542  0.73685767  1
  Fe  Fe239  1  0.22065648  0.87499841  0.23615798  1
  Fe  Fe240  1  0.22036488  0.87505170  0.73729975  1
  Fe  Fe241  1  0.77655954  0.12589401  0.25962233  1
  Fe  Fe242  1  0.78010576  0.12473017  0.76375728  1
  Fe  Fe243  1  0.27565985  0.63304845  0.48861061  1
  Fe  Fe244  1  0.27933049  0.62350240  0.98708092  1
  Fe  Fe245  1  0.21810506  0.37464385  0.23006928  1
  Fe  Fe246  1  0.21851433  0.37679175  0.74077357  1
  Fe  Fe247  1  0.22095261  0.87464687  0.23588971  1
  Fe  Fe248  1  0.22023060  0.87500755  0.73902191  1
  Fe  Fe249  1  0.78118088  0.12357832  0.25658869  1
  Fe  Fe250  1  0.78145298  0.12435758  0.76568854  1
  Fe  Fe251  1  0.77966002  0.62530524  0.26061690  1
  Fe  Fe252  1  0.77911309  0.62494072  0.76309310  1
  Fe  Fe253  1  0.71442380  0.37108345  0.01219049  1
  Fe  Fe254  1  0.72082350  0.37541964  0.50701172  1
  Fe  Fe255  1  0.72062048  0.87597043  0.01258482  1
  Fe  Fe256  1  0.72366384  0.86921955  0.51138902  1
  Fe  Fe257  1  0.72071108  0.87653392  0.01260808  1
  Fe  Fe258  1  0.72523903  0.86561490  0.51043313  1
  Fe  Fe259  1  0.27768604  0.12272545  0.48642520  1
  Fe  Fe260  1  0.28552415  0.12904450  0.98686038  1
  Fe  Fe261  1  0.27476141  0.63438517  0.48956660  1
  Fe  Fe262  1  0.27928908  0.62346624  0.98739203  1
  Fe  Fe263  1  0.21850737  0.37469849  0.23102707  1
  Fe  Fe264  1  0.21896729  0.37685204  0.74146340  1
  Fe  Fe265  1  0.22095234  0.87466679  0.23586229  1
  Fe  Fe266  1  0.22014171  0.87486187  0.73945924  1
  Fe  Fe267  1  0.78129984  0.12329795  0.25743366  1
  Fe  Fe268  1  0.78149914  0.12478673  0.76776327  1
  Fe  Fe269  1  0.77982748  0.62535582  0.26045110  1
  Fe  Fe270  1  0.77918191  0.62518613  0.76382027  1
  Fe  Fe271  1  0.71443698  0.37098027  0.01284518  1
  Fe  Fe272  1  0.72283773  0.37703574  0.51015008  1
  Fe  Fe273  1  0.72072604  0.87632304  0.01260532  1
  Fe  Fe274  1  0.72462301  0.86701992  0.51091281  1
  Fe  Fe275  1  0.27927967  0.12451405  0.48302974  1
  Fe  Fe276  1  0.28534141  0.12892531  0.98655114  1
  P  P277  1  0.09424232  0.12479256  0.20872771  1
  P  P278  1  0.09200379  0.12471649  0.70849033  1
  P  P279  1  0.09310784  0.62525905  0.20785584  1
  P  P280  1  0.09314600  0.62507961  0.70779601  1
  P  P281  1  0.40338451  0.37840436  0.45701060  1
  P  P282  1  0.40413194  0.37779333  0.95315902  1
  P  P283  1  0.40576734  0.87505927  0.45752255  1
  P  P284  1  0.40530168  0.87375352  0.95716084  1
  P  P285  1  0.59521214  0.12273077  0.03726914  1
  P  P286  1  0.60043152  0.11672897  0.53682618  1
  P  P287  1  0.59362623  0.62526110  0.04062622  1
  P  P288  1  0.59499760  0.62493350  0.54121500  1
  P  P289  1  0.90712115  0.37528189  0.28934659  1
  P  P290  1  0.90515623  0.37581397  0.78963615  1
  P  P291  1  0.90946356  0.87408092  0.29244035  1
  P  P292  1  0.91005659  0.87425293  0.29311793  1
  P  P293  1  0.90929764  0.87451294  0.79407933  1
  P  P294  1  0.40703448  0.37483695  0.96054412  1
  P  P295  1  0.40479428  0.87365446  0.45794068  1
  P  P296  1  0.40637491  0.87492191  0.95796723  1
  P  P297  1  0.59661555  0.12159553  0.04298934  1
  P  P298  1  0.59296541  0.12516315  0.53945581  1
  P  P299  1  0.59362504  0.62507836  0.54203280  1
  P  P300  1  0.90575762  0.37520729  0.29127258  1
  P  P301  1  0.90799624  0.37528362  0.79151006  1
  P  P302  1  0.90689248  0.87474068  0.29214452  1
  P  P303  1  0.90685403  0.87492059  0.79220437  1
  P  P304  1  0.40508708  0.87566212  0.45848305  1
  P  P305  1  0.40577959  0.87407642  0.95893789  1
  P  P306  1  0.08935786  0.62601762  0.70734303  1
  P  P307  1  0.39524522  0.38965945  0.46437916  1
  P  P308  1  0.40399671  0.37828124  0.96137442  1
  P  P309  1  0.59893269  0.11938945  0.54558739  1
  P  P310  1  0.59469842  0.62624649  0.04283958  1
  P  P311  1  0.59423298  0.62494066  0.54247746  1
  P  P312  1  0.09159680  0.62503432  0.20602982  1
  P  P313  1  0.09116931  0.62567228  0.70680523  1
  P  P314  1  0.40106728  0.38061056  0.45441288  1
  P  P315  1  0.90492271  0.37560468  0.29195595  1
  P  P316  1  0.90649692  0.37614191  0.79270719  1
  P  P317  1  0.59599390  0.12156696  0.04421946  1
  P  P318  1  0.09398139  0.12387883  0.20894016  1
  P  P319  1  0.59296602  0.12516271  0.03945504  1
  P  P320  1  0.59661592  0.12159485  0.54298989  1
  P  P321  1  0.59362517  0.62507846  0.04203272  1
  P  P322  1  0.59520593  0.62634555  0.54205988  1
  P  P323  1  0.90799669  0.37528370  0.29150976  1
  P  P324  1  0.90575740  0.37520718  0.79127249  1
  P  P325  1  0.90685432  0.87492075  0.29220487  1
  P  P326  1  0.90689231  0.87474056  0.79214438  1
  P  P327  1  0.08994351  0.62574726  0.70688275  1
  P  P328  1  0.39563009  0.38641519  0.45239101  1
  P  P329  1  0.40400596  0.37843326  0.95578078  1
  P  P330  1  0.40532011  0.87509708  0.45771624  1
  P  P331  1  0.40539931  0.87370109  0.95766679  1
  P  P332  1  0.59600325  0.12171876  0.03862574  1
  P  P333  1  0.60475492  0.11034065  0.53562067  1
  P  P334  1  0.59422063  0.62592376  0.04106201  1
  P  P335  1  0.09385071  0.12451379  0.70997056  1
  P  P336  1  0.09013912  0.62569838  0.20629723  1
  P  P337  1  0.08886857  0.62590105  0.70739121  1
  P  P338  1  0.39158029  0.39510166  0.46164080  1
  P  P339  1  0.40376597  0.37858805  0.95989510  1
  P  P340  1  0.40515886  0.87572233  0.45815637  1
  P  P341  1  0.40542791  0.87373383  0.95865853  1
  P  P342  1  0.59608161  0.12137546  0.04201387  1
  P  P343  1  0.60912468  0.10718085  0.54786599  1
  P  P344  1  0.59464043  0.62641280  0.04190052  1
  P  P345  1  0.90993289  0.87439227  0.79387175  1
  P  P346  1  0.09354586  0.12366211  0.20787535  1
  P  P347  1  0.09459846  0.12447204  0.70885027  1
  P  P348  1  0.09029520  0.62559256  0.20604592  1
  P  P349  1  0.08924145  0.62570284  0.70718982  1
  P  P350  1  0.39087563  0.39281912  0.45213402  1
  P  P351  1  0.40391840  0.37862463  0.95798608  1
  P  P352  1  0.40519325  0.87532780  0.45788760  1
  P  P353  1  0.40535963  0.87358718  0.95809982  1
  P  P354  1  0.59623388  0.12141217  0.04010489  1
  P  P355  1  0.90546811  0.37598823  0.79016889  1
  P  P356  1  0.91064247  0.87398228  0.29265675  1
  P  P357  1  0.90957341  0.87416957  0.79327176  1
  P  P358  1  0.09324638  0.12422835  0.20698508  1
  P  P359  1  0.09523741  0.12450822  0.70748333  1
  P  P360  1  0.09129153  0.62582420  0.20724725  1
  P  P361  1  0.09053664  0.62591905  0.70755985  1
  P  P362  1  0.39956856  0.38327104  0.46317410  1
  P  P363  1  0.40478809  0.37726928  0.96273102  1
  P  P364  1  0.40500242  0.87506678  0.45878527  1
  P  P365  1  0.40637370  0.87473876  0.95937368  1
  P  P366  1  0.59586826  0.12220705  0.04684156  1
  P  P367  1  0.60436981  0.11358492  0.54760874  1
  P  P368  1  0.59460107  0.62629905  0.04233322  1
  P  P369  1  0.59468019  0.62490288  0.54228439  1
  P  P370  1  0.59491260  0.62433829  0.54151722  1
  P  P371  1  0.90651906  0.37545700  0.28937399  1
  P  P372  1  0.60842021  0.10489844  0.53835928  1
  P  P373  1  0.59457206  0.62626649  0.04134183  1
  P  P374  1  0.59484137  0.62427801  0.54184387  1
  P  P375  1  0.90614925  0.37548632  0.29002979  1
  P  P376  1  0.90601853  0.37612137  0.79106008  1
  P  P377  1  0.91113154  0.87409893  0.29260855  1
  P  P378  1  0.90986091  0.87430208  0.79370280  1
  P  P379  1  0.09350338  0.12385809  0.20729260  1
  P  P380  1  0.09507716  0.12439529  0.70804413  1
  P  P381  1  0.09070246  0.62548724  0.20592116  1
  P  P382  1  0.40378375  0.37865002  0.95901339  1
  P  P383  1  0.40521314  0.87551481  0.45804372  1
  P  P384  1  0.40529169  0.87353203  0.95841546  1
  P  P385  1  0.59621624  0.12135033  0.04098705  1
  P  P386  1  0.61052179  0.10226087  0.54374904  1
  P  P387  1  0.59470849  0.62646807  0.04158503  1
  P  P388  1  0.59478707  0.62448560  0.54195651  1
  P  P389  1  0.90586935  0.37541340  0.29054276  1
  P  P390  1  0.90625839  0.37625955  0.79162921  1
  P  P391  1  0.91124663  0.87419877  0.29257584  1
  P  P392  1  0.59480678  0.62467245  0.54211293  1
  P  P393  1  0.90540156  0.37552756  0.29115025  1
  P  P394  1  0.90645412  0.37633771  0.79212490  1
  P  P395  1  0.91075884  0.87429708  0.29280993  1
  P  P396  1  0.90970485  0.87440728  0.79395408  1
  P  P397  1  0.09374155  0.12374065  0.20837064  1
  P  P398  1  0.09413075  0.12458673  0.70945741  1
  P  P399  1  0.09006728  0.62560789  0.20612881  1
  P  P400  1  0.08875363  0.62580113  0.70742404  1
  P  P401  1  0.38947885  0.39773914  0.45625099  1
  P  P402  1  0.90870856  0.87417588  0.79275283  1
  P  P403  1  0.09200343  0.12471644  0.20849011  1
  P  P404  1  0.09424237  0.12479257  0.70872794  1
  P  P405  1  0.09314575  0.62507949  0.20779586  1
  P  P406  1  0.09310782  0.62525942  0.70785601  1
  P  P407  1  0.40703407  0.37483733  0.46054493  1
  P  P408  1  0.40338414  0.37840530  0.95700996  1
  P  P409  1  0.40637473  0.87492195  0.45796771  1
  P  P410  1  0.40479415  0.87365419  0.95794018  1
  P  P411  1  0.90476257  0.37549183  0.29251698  1
  P  P412  1  0.90675369  0.37577168  0.79301484  1
  P  P413  1  0.90883100  0.87432784  0.29319519  1
  P  P414  1  0.90840304  0.87496570  0.79397000  1
  P  P415  1  0.09453198  0.12401191  0.20983176  1
  P  P416  1  0.09348088  0.12454303  0.71062618  1
  P  P417  1  0.09042676  0.62583056  0.20672802  1
  P  P418  1  0.59520612  0.62634592  0.04205939  1
  P  P419  1  0.09484370  0.12418609  0.21036366  1
  P  P420  1  0.09287877  0.12471809  0.71065345  1
  O  O421  1  0.09953774  0.12456335  0.36993978  1
  O  O422  1  0.09629658  0.12441872  0.86969393  1
  O  O423  1  0.39982790  0.87293694  0.61884625  1
  O  O424  1  0.16449781  0.02370962  0.14005234  1
  O  O425  1  0.16149491  0.02266935  0.64099540  1
  O  O426  1  0.16208734  0.52354558  0.13928666  1
  O  O427  1  0.16212502  0.52324794  0.64000294  1
  O  O428  1  0.90275944  0.87487126  0.13105251  1
  O  O429  1  0.90265506  0.87477169  0.63102352  1
  O  O430  1  0.04449200  0.37598668  0.35075297  1
  O  O431  1  0.04637627  0.37536723  0.85206930  1
  O  O432  1  0.04544096  0.87436621  0.35207121  1
  O  O433  1  0.84009224  0.77235318  0.36025765  1
  O  O434  1  0.83765913  0.77395141  0.86165165  1
  O  O435  1  0.83781198  0.47793573  0.35869528  1
  O  O436  1  0.83713283  0.47793463  0.85869918  1
  O  O437  1  0.84373463  0.97547898  0.36215832  1
  O  O438  1  0.84290004  0.97672467  0.86247503  1
  O  O439  1  0.90063843  0.37564730  0.12897619  1
  O  O440  1  0.90240388  0.37575059  0.62972041  1
  O  O441  1  0.90583769  0.87431725  0.13178606  1
  O  O442  1  0.90680975  0.87330565  0.63275662  1
  O  O443  1  0.32758434  0.27921632  0.89763749  1
  O  O444  1  0.89935397  0.37561445  0.13071561  1
  O  O445  1  0.90246099  0.37555508  0.63184147  1
  O  O446  1  0.90407386  0.87477937  0.13224568  1
  O  O447  1  0.09724076  0.62512851  0.36894796  1
  O  O448  1  0.09734501  0.62522845  0.86897652  1
  O  O449  1  0.83772002  0.27284167  0.35895619  1
  O  O450  1  0.83827610  0.27370617  0.85902162  1
  O  O451  1  0.83668956  0.77328898  0.36001186  1
  O  O452  1  0.66226690  0.52247984  0.61067752  1
  O  O453  1  0.16357217  0.22604391  0.14257472  1
  O  O454  1  0.16269669  0.22618238  0.64307800  1
  O  O455  1  0.16244057  0.72674764  0.13929661  1
  O  O456  1  0.16140471  0.72735866  0.63979319  1
  O  O457  1  0.95550800  0.12401272  0.64924774  1
  O  O458  1  0.95461732  0.62576869  0.14743097  1
  O  O459  1  0.95455922  0.62563414  0.64792937  1
  O  O460  1  0.45415161  0.12200497  0.09413204  1
  O  O461  1  0.45724883  0.12373146  0.60095983  1
  O  O462  1  0.45520797  0.62528537  0.10162453  1
  O  O463  1  0.45653214  0.62599542  0.60185579  1
  O  O464  1  0.54584821  0.37799506  0.40586750  1
  O  O465  1  0.54275115  0.37626880  0.89904053  1
  O  O466  1  0.54479194  0.87471495  0.39837554  1
  O  O467  1  0.33332898  0.77492809  0.38795289  1
  O  O468  1  0.33504946  0.77233546  0.88930889  1
  O  O469  1  0.33287979  0.48846933  0.37981153  1
  O  O470  1  0.33684024  0.48141365  0.88403958  1
  O  O471  1  0.33777574  0.97763914  0.38867189  1
  O  O472  1  0.33545280  0.97551073  0.89001934  1
  O  O473  1  0.90267812  0.37577443  0.63081868  1
  O  O474  1  0.90563740  0.87475782  0.13201462  1
  O  O475  1  0.90660616  0.87362227  0.63300850  1
  O  O476  1  0.04456484  0.37459029  0.34973726  1
  O  O477  1  0.04508240  0.37565035  0.85237139  1
  O  O478  1  0.04919537  0.87291945  0.35301446  1
  O  O479  1  0.04807237  0.87310021  0.85480732  1
  O  O480  1  0.39318892  0.38487939  0.12041490  1
  O  O481  1  0.38371953  0.39823557  0.62113004  1
  O  O482  1  0.40055063  0.87278862  0.11975860  1
  O  O483  1  0.84334871  0.97563628  0.36179207  1
  O  O484  1  0.84233373  0.97656127  0.86177047  1
  O  O485  1  0.90117785  0.37562295  0.12831284  1
  O  O486  1  0.90158514  0.37578211  0.62892300  1
  O  O487  1  0.90549078  0.87408969  0.13173689  1
  O  O488  1  0.33692495  0.97724492  0.39019801  1
  O  O489  1  0.33785358  0.97843190  0.38981027  1
  O  O490  1  0.33564745  0.97609159  0.89215226  1
  O  O491  1  0.95588858  0.12453280  0.14941349  1
  O  O492  1  0.95501295  0.12496113  0.65097150  1
  O  O493  1  0.95199105  0.62695560  0.14616087  1
  O  O494  1  0.95085574  0.62777482  0.64722162  1
  O  O495  1  0.45705559  0.12147774  0.10098575  1
  O  O496  1  0.46204611  0.11913366  0.59014714  1
  O  O497  1  0.45631892  0.62681735  0.10240974  1
  O  O498  1  0.16240344  0.02169875  0.14066610  1
  O  O499  1  0.16252291  0.02212162  0.64000088  1
  O  O500  1  0.15716179  0.52322668  0.13682856  1
  O  O501  1  0.15734887  0.52445630  0.63750013  1
  O  O502  1  0.67241529  0.22078391  0.10236293  1
  O  O503  1  0.67327313  0.21329867  0.59640487  1
  O  O504  1  0.66474437  0.72753022  0.11001185  1
  O  O505  1  0.66668068  0.72415379  0.61245986  1
  O  O506  1  0.32039765  0.28713465  0.39887537  1
  O  O507  1  0.32780168  0.27933220  0.89523979  1
  O  O508  1  0.90579543  0.87409830  0.63309041  1
  O  O509  1  0.04425544  0.37458694  0.35034918  1
  O  O510  1  0.04511226  0.37574360  0.85302394  1
  O  O511  1  0.04848558  0.87316455  0.35330540  1
  O  O512  1  0.04769041  0.87329809  0.85482430  1
  O  O513  1  0.39406324  0.38382460  0.12225662  1
  O  O514  1  0.38529607  0.39569515  0.62325694  1
  O  O515  1  0.40100089  0.87312483  0.12009485  1
  O  O516  1  0.33747313  0.47757001  0.89213260  1
  O  O517  1  0.33429933  0.97480961  0.38987192  1
  O  O518  1  0.83652282  0.47767715  0.85824390  1
  O  O519  1  0.33682712  0.97718561  0.89319809  1
  O  O520  1  0.95613055  0.12420409  0.15031494  1
  O  O521  1  0.95452189  0.12475998  0.65057349  1
  O  O522  1  0.95274037  0.62664302  0.14706134  1
  O  O523  1  0.95195875  0.62731372  0.64748847  1
  O  O524  1  0.45726470  0.12407285  0.10629122  1
  O  O525  1  0.45843523  0.12028082  0.59467632  1
  O  O526  1  0.45624593  0.62677325  0.10267592  1
  O  O527  1  0.45561659  0.62779128  0.60097103  1
  O  O528  1  0.54030803  0.37743476  0.40876511  1
  O  O529  1  0.04473249  0.37483994  0.34935749  1
  O  O530  1  0.04467929  0.37539164  0.85123316  1
  O  O531  1  0.04954005  0.87231597  0.35290503  1
  O  O532  1  0.04823902  0.87304083  0.85455965  1
  O  O533  1  0.39360643  0.38517425  0.11811266  1
  O  O534  1  0.38533430  0.39271897  0.61476729  1
  O  O535  1  0.40053315  0.87254579  0.11917351  1
  O  O536  1  0.39698341  0.87335111  0.61855983  1
  O  O537  1  0.16235307  0.02269912  0.64254277  1
  O  O538  1  0.15916154  0.52363715  0.13887122  1
  O  O539  1  0.15840144  0.52412521  0.63889628  1
  O  O540  1  0.66915457  0.22248033  0.11283107  1
  O  O541  1  0.67667358  0.21889622  0.60447364  1
  O  O542  1  0.66481481  0.72782470  0.11109891  1
  O  O543  1  0.66587037  0.72549462  0.61166296  1
  O  O544  1  0.33161573  0.27909205  0.39848022  1
  O  O545  1  0.32821351  0.27805620  0.90103806  1
  O  O546  1  0.33414811  0.77416142  0.38918980  1
  O  O547  1  0.60639365  0.11482584  0.88188714  1
  O  O548  1  0.60301697  0.62664955  0.38144038  1
  O  O549  1  0.59946693  0.62745435  0.88082693  1
  O  O550  1  0.66348604  0.01864313  0.11445941  1
  O  O551  1  0.67097382  0.00678884  0.62156290  1
  O  O552  1  0.66472872  0.52451311  0.10930625  1
  O  O553  1  0.66247532  0.52219158  0.61120966  1
  O  O554  1  0.16339122  0.22529316  0.14129367  1
  O  O555  1  0.16431842  0.22521431  0.64142520  1
  O  O556  1  0.16234145  0.72604873  0.13834824  1
  O  O557  1  0.33331946  0.77584653  0.38753998  1
  O  O558  1  0.33525582  0.77247035  0.88998776  1
  O  O559  1  0.32818058  0.49220263  0.38147371  1
  O  O560  1  0.33619548  0.48142000  0.88823102  1
  O  O561  1  0.33784441  0.97861264  0.38955306  1
  O  O562  1  0.15990768  0.72764702  0.63974227  1
  O  O563  1  0.09749225  0.12426593  0.36972193  1
  O  O564  1  0.09973570  0.12438150  0.87054428  1
  O  O565  1  0.09285553  0.62674532  0.36708164  1
  O  O566  1  0.09407203  0.62546356  0.86817550  1
  O  O567  1  0.83534844  0.27475980  0.35915039  1
  O  O568  1  0.83689256  0.27494109  0.85951846  1
  O  O569  1  0.84055220  0.77222294  0.36022583  1
  O  O570  1  0.83764871  0.77408596  0.86182374  1
  O  O571  1  0.83765821  0.47783876  0.35936963  1
  O  O572  1  0.16212481  0.52324773  0.14000333  1
  O  O573  1  0.16208698  0.52354590  0.63928641  1
  O  O574  1  0.67050205  0.22379643  0.10122019  1
  O  O575  1  0.66635580  0.22380964  0.61002369  1
  O  O576  1  0.66382184  0.72663712  0.10986219  1
  O  O577  1  0.66404803  0.72836427  0.61079969  1
  O  O578  1  0.32949795  0.27620363  0.39877956  1
  O  O579  1  0.33364453  0.27619031  0.88997605  1
  O  O580  1  0.33617795  0.77336320  0.39013854  1
  O  O581  1  0.83668905  0.77328885  0.86001101  1
  O  O582  1  0.83850551  0.47733106  0.35900419  1
  O  O583  1  0.83550247  0.47629048  0.85994736  1
  O  O584  1  0.83787536  0.97675299  0.35999675  1
  O  O585  1  0.83791325  0.97645444  0.86071316  1
  O  O586  1  0.90370384  0.37558086  0.13030605  1
  O  O587  1  0.90046177  0.37543611  0.63006056  1
  O  O588  1  0.90265517  0.87477201  0.13102418  1
  O  O589  1  0.90275926  0.87487134  0.63105236  1
  O  O590  1  0.04637650  0.37536736  0.35206963  1
  O  O591  1  0.54375394  0.87322678  0.89732445  1
  O  O592  1  0.61133505  0.10959717  0.37797106  1
  O  O593  1  0.90465669  0.87473370  0.63290436  1
  O  O594  1  0.04411026  0.37510546  0.35091126  1
  O  O595  1  0.04540976  0.37594970  0.85310319  1
  O  O596  1  0.04727067  0.87365763  0.35326652  1
  O  O597  1  0.04686828  0.87393311  0.85453799  1
  O  O598  1  0.39604813  0.38164001  0.12408491  1
  O  O599  1  0.38866474  0.39040238  0.62202936  1
  O  O600  1  0.40185618  0.87378207  0.12057644  1
  O  O601  1  0.54422865  0.37972802  0.90993921  1
  O  O602  1  0.54395264  0.87287547  0.40024856  1
  O  O603  1  0.16265621  0.22489318  0.13957521  1
  O  O604  1  0.16501661  0.22522789  0.64028905  1
  O  O605  1  0.16244594  0.72593747  0.13813765  1
  O  O606  1  0.33521489  0.97560686  0.89136345  1
  O  O607  1  0.95532076  0.12460860  0.14876762  1
  O  O608  1  0.95526780  0.12516010  0.65064256  1
  O  O609  1  0.95176075  0.62695979  0.14544103  1
  O  O610  1  0.95045997  0.62768382  0.64709499  1
  O  O611  1  0.45664471  0.11965901  0.09580002  1
  O  O612  1  0.46543682  0.11610500  0.58828646  1
  O  O613  1  0.45638820  0.62676444  0.10185478  1
  O  O614  1  0.45596888  0.62870256  0.59924446  1
  O  O615  1  0.53470046  0.38736235  0.41316356  1
  O  O616  1  0.45666001  0.11936536  0.09271771  1
  O  O617  1  0.46530001  0.11263735  0.58683661  1
  O  O618  1  0.45626194  0.62653026  0.10104844  1
  O  O619  1  0.45595405  0.62792568  0.59920952  1
  O  O620  1  0.53456341  0.38389521  0.41171360  1
  O  O621  1  0.54335527  0.38034093  0.90419982  1
  O  O622  1  0.33412976  0.77450545  0.38833674  1
  O  O623  1  0.33518513  0.77217538  0.88890138  1
  O  O624  1  0.33527445  0.48342404  0.38376504  1
  O  O625  1  0.83736706  0.47813861  0.85902659  1
  O  O626  1  0.84338508  0.97535498  0.36228833  1
  O  O627  1  0.84315226  0.97681175  0.86295463  1
  O  O628  1  0.90026382  0.37561823  0.12945590  1
  O  O629  1  0.90250769  0.37573420  0.63027792  1
  O  O630  1  0.90592836  0.87453642  0.13182427  1
  O  O631  1  0.90714473  0.87325471  0.63291885  1
  O  O632  1  0.04473317  0.37467004  0.34951045  1
  O  O633  1  0.04489393  0.37550935  0.85168691  1
  O  O634  1  0.04961531  0.87267914  0.35293626  1
  O  O635  1  0.33595201  0.77163527  0.88920118  1
  O  O636  1  0.33747328  0.47757040  0.39213351  1
  O  O637  1  0.33610382  0.47985527  0.88382896  1
  O  O638  1  0.33639666  0.97675455  0.39055804  1
  O  O639  1  0.33429908  0.97480921  0.88987093  1
  O  O640  1  0.95362356  0.12463273  0.14793042  1
  O  O641  1  0.09416264  0.62568287  0.86821388  1
  O  O642  1  0.83498372  0.27477159  0.35971091  1
  O  O643  1  0.83734364  0.27510677  0.86042492  1
  O  O644  1  0.84010560  0.77248658  0.36052009  1
  O  O645  1  0.83755418  0.77406259  0.86186285  1
  O  O646  1  0.83747712  0.47787756  0.36000062  1
  O  O647  1  0.83759648  0.47830117  0.85933421  1
  O  O648  1  0.84265120  0.97554346  0.36249977  1
  O  O649  1  0.84283850  0.97677294  0.86317228  1
  O  O650  1  0.89987356  0.37562837  0.12999877  1
  O  O651  1  0.16227994  0.22715820  0.64104435  1
  O  O652  1  0.16314836  0.72674978  0.14005563  1
  O  O653  1  0.16331110  0.72671106  0.63998912  1
  O  O654  1  0.16224700  0.02204176  0.13996123  1
  O  O655  1  0.16355593  0.02251189  0.63895316  1
  O  O656  1  0.15975514  0.52302435  0.13726793  1
  O  O657  1  0.15988848  0.52418218  0.63758141  1
  O  O658  1  0.67178643  0.22194385  0.09896205  1
  O  O659  1  0.66838438  0.22090799  0.60152045  1
  O  O660  1  0.66433763  0.72630454  0.10908063  1
  O  O661  1  0.66585210  0.72583875  0.61081020  1
  O  O662  1  0.32332668  0.28110354  0.39552660  1
  O  O663  1  0.33084571  0.27752013  0.88716857  1
  O  O664  1  0.09841486  0.12421755  0.37107749  1
  O  O665  1  0.09882220  0.12437661  0.87168745  1
  O  O666  1  0.09392129  0.62647323  0.36770916  1
  O  O667  1  0.09450920  0.62591053  0.86826296  1
  O  O668  1  0.83498701  0.27452660  0.36026146  1
  O  O669  1  0.66252656  0.02243014  0.60786717  1
  O  O670  1  0.66570128  0.52519072  0.11012804  1
  O  O671  1  0.66360283  0.52324571  0.60944270  1
  O  O672  1  0.16228009  0.22715801  0.14104433  1
  O  O673  1  0.16172383  0.22629426  0.64097924  1
  O  O674  1  0.16331073  0.72671068  0.13998872  1
  O  O675  1  0.16314833  0.72675026  0.64005614  1
  O  O676  1  0.09937408  0.12417373  0.37153282  1
  O  O677  1  0.09777805  0.12435050  0.87178964  1
  O  O678  1  0.09534246  0.62596951  0.36830289  1
  O  O679  1  0.09537117  0.62592210  0.86860474  1
  O  O680  1  0.83594149  0.27385986  0.36078094  1
  O  O681  1  0.83783165  0.27426903  0.86158342  1
  O  O682  1  0.83835857  0.77289461  0.36107981  1
  O  O683  1  0.83723603  0.77395541  0.86157577  1
  O  O684  1  0.04449189  0.37598688  0.85075289  1
  O  O685  1  0.04538282  0.87423163  0.35256863  1
  O  O686  1  0.04544100  0.87436562  0.85207040  1
  O  O687  1  0.39387275  0.38380817  0.11629916  1
  O  O688  1  0.54346789  0.87400409  0.89814428  1
  O  O689  1  0.60612715  0.11619229  0.38370078  1
  O  O690  1  0.83730326  0.27381779  0.35692235  1
  O  O691  1  0.83642846  0.27395609  0.85742551  1
  O  O692  1  0.83859530  0.77264122  0.36020660  1
  O  O693  1  0.83755947  0.77325240  0.86070349  1
  O  O694  1  0.83764713  0.47730076  0.35745790  1
  O  O695  1  0.83587203  0.47733379  0.85819455  1
  O  O696  1  0.84159885  0.97587494  0.36110336  1
  O  O697  1  0.84083847  0.97636295  0.86112876  1
  O  O698  1  0.90222179  0.37564934  0.12821028  1
  O  O699  1  0.90062618  0.37582651  0.62846703  1
  O  O700  1  0.66492018  0.72774123  0.11021859  1
  O  O701  1  0.66663036  0.72422393  0.61288433  1
  O  O702  1  0.32483742  0.28845137  0.40206420  1
  O  O703  1  0.32765647  0.27934362  0.89644940  1
  O  O704  1  0.33337017  0.77577641  0.38711548  1
  O  O705  1  0.33507997  0.77225880  0.88978161  1
  O  O706  1  0.32579456  0.49502654  0.37854661  1
  O  O707  1  0.33625229  0.48139780  0.88684668  1
  O  O708  1  0.33750718  0.97811554  0.38909669  1
  O  O709  1  0.33509165  0.97545285  0.89107372  1
  O  O710  1  0.33541431  0.77290575  0.89028993  1
  O  O711  1  0.33150065  0.48794959  0.38455908  1
  O  O712  1  0.33618922  0.48100710  0.88987520  1
  O  O713  1  0.39770701  0.87382350  0.61917743  1
  O  O714  1  0.16347704  0.02232314  0.14175589  1
  O  O715  1  0.16225507  0.02230242  0.64200272  1
  O  O716  1  0.15766710  0.52343896  0.13822957  1
  O  O717  1  0.15665188  0.52436346  0.63820854  1
  O  O718  1  0.67141961  0.22112196  0.10803671  1
  O  O719  1  0.67960479  0.21574086  0.60299902  1
  O  O720  1  0.83644408  0.47748808  0.36104670  1
  O  O721  1  0.83775322  0.47795843  0.86003857  1
  O  O722  1  0.84011202  0.97581814  0.36241883  1
  O  O723  1  0.84024476  0.97697591  0.86273162  1
  O  O724  1  0.89914399  0.37548167  0.13122062  1
  O  O725  1  0.66635571  0.22381005  0.11002407  1
  O  O726  1  0.90046174  0.37543637  0.13006046  1
  O  O727  1  0.90370353  0.37558104  0.63030627  1
  O  O728  1  0.66404837  0.72836477  0.11079843  1
  O  O729  1  0.66382139  0.72663721  0.60986215  1
  O  O730  1  0.95488774  0.12425637  0.14697654  1
  O  O731  1  0.95574406  0.12541289  0.64965196  1
  O  O732  1  0.95230967  0.62670158  0.14517535  1
  O  O733  1  0.95151447  0.62683564  0.64669476  1
  O  O734  1  0.45649718  0.11954340  0.09137860  1
  O  O735  1  0.46267073  0.11731914  0.58713192  1
  O  O736  1  0.45591264  0.62630321  0.10074139  1
  O  O737  1  0.45598323  0.62758592  0.59935394  1
  O  O738  1  0.53795400  0.38086689  0.40985321  1
  O  O739  1  0.54294442  0.37852268  0.89901485  1
  O  O740  1  0.60395206  0.11836010  0.87591525  1
  O  O741  1  0.60155295  0.62635149  0.38048088  1
  O  O742  1  0.39714459  0.87364140  0.61882452  1
  O  O743  1  0.16286710  0.02206571  0.14130051  1
  O  O744  1  0.16218829  0.02206450  0.64130459  1
  O  O745  1  0.15709956  0.52327555  0.13752533  1
  O  O746  1  0.15626553  0.52452126  0.63784145  1
  O  O747  1  0.67219813  0.22066799  0.10476018  1
  O  O748  1  0.67960230  0.21286543  0.60112464  1
  O  O749  1  0.66495554  0.72771270  0.11040374  1
  O  O750  1  0.66669362  0.72458149  0.61267271  1
  O  O751  1  0.32672700  0.28670162  0.40359513  1
  O  O752  1  0.54462827  0.87421615  0.89932960  1
  O  O753  1  0.60674945  0.11645159  0.38315994  1
  O  O754  1  0.60453453  0.11682518  0.88724385  1
  O  O755  1  0.60062349  0.62630484  0.38156945  1
  O  O756  1  0.59954706  0.62699036  0.88177207  1
  O  O757  1  0.66283438  0.01909524  0.11755582  1
  O  O758  1  0.66472529  0.01657563  0.61623502  1
  O  O759  1  0.66461484  0.52470039  0.11096035  1
  O  O760  1  0.90276084  0.37580429  0.63145605  1
  O  O761  1  0.90515950  0.87479374  0.13221565  1
  O  O762  1  0.15989457  0.72751345  0.63947947  1
  O  O763  1  0.09723934  0.12419611  0.36854383  1
  O  O764  1  0.10064609  0.12438561  0.86928412  1
  O  O765  1  0.09420448  0.62590208  0.36691007  1
  O  O766  1  0.09484064  0.62520633  0.86778512  1
  O  O767  1  0.83639725  0.27440404  0.35743685  1
  O  O768  1  0.83625707  0.27441218  0.85779012  1
  O  O769  1  0.83941259  0.77249982  0.36040352  1
  O  O770  1  0.83767899  0.77367276  0.86127167  1
  O  O771  1  0.83774486  0.47769784  0.35799682  1
  O  O772  1  0.40155398  0.37628499  0.62275343  1
  O  O773  1  0.39982756  0.87293680  0.11884571  1
  O  O774  1  0.40128766  0.87440951  0.61911309  1
  O  O775  1  0.16149456  0.02266901  0.14099571  1
  O  O776  1  0.16449749  0.02370937  0.64005301  1
  O  O777  1  0.16276403  0.72604447  0.13842396  1
  O  O778  1  0.16164154  0.72710586  0.63892111  1
  O  O779  1  0.09629608  0.12441899  0.36969381  1
  O  O780  1  0.09953812  0.12456368  0.86994004  1
  O  O781  1  0.09734516  0.62522818  0.36897653  1
  O  O782  1  0.09724088  0.62512860  0.86894816  1
  O  O783  1  0.83827640  0.27370651  0.35902196  1
  O  O784  1  0.83771991  0.27284172  0.85895640  1
  O  O785  1  0.83685195  0.77324996  0.35994465  1
  O  O786  1  0.59844625  0.12371509  0.87724663  1
  O  O787  1  0.60017224  0.62706341  0.38115437  1
  O  O788  1  0.59871238  0.62559093  0.88088737  1
  O  O789  1  0.66252685  0.02242980  0.10786651  1
  O  O790  1  0.66389623  0.02014499  0.61617143  1
  O  O791  1  0.66360338  0.52324561  0.10944172  1
  O  O792  1  0.66570174  0.52519055  0.61012809  1
  O  O793  1  0.16172387  0.22629390  0.14097854  1
  O  O794  1  0.90462926  0.87407785  0.13139548  1
  O  O795  1  0.90465777  0.87403038  0.63169748  1
  O  O796  1  0.04547806  0.37523983  0.34942711  1
  O  O797  1  0.04386929  0.37579589  0.84968513  1
  O  O798  1  0.04804143  0.87268634  0.35251167  1
  O  O799  1  0.04725986  0.87335664  0.85293861  1
  O  O800  1  0.39546534  0.38317480  0.11275683  1
  O  O801  1  0.39325007  0.38354847  0.61684025  1
  O  O802  1  0.40045302  0.87300973  0.11822824  1
  O  O803  1  0.39937687  0.87369545  0.61843052  1
  O  O804  1  0.67234313  0.22065680  0.10355115  1
  O  O805  1  0.67516256  0.21154887  0.59793574  1
  O  O806  1  0.83850524  0.47733102  0.85900433  1
  O  O807  1  0.83791322  0.97645446  0.36071351  1
  O  O808  1  0.83787473  0.97675215  0.85999669  1
  O  O809  1  0.67050136  0.22379668  0.60122200  1
  O  O810  1  0.04538254  0.87423171  0.85256804  1
  O  O811  1  0.40155413  0.37628456  0.12275244  1
  O  O812  1  0.39387382  0.38380644  0.61629987  1
  O  O813  1  0.40128788  0.87440975  0.11911268  1
  O  O814  1  0.32773296  0.27890839  0.89938391  1
  O  O815  1  0.33339615  0.77543349  0.38840116  1
  O  O816  1  0.95510603  0.12449072  0.14831333  1
  O  O817  1  0.95526725  0.12533025  0.65048951  1
  O  O818  1  0.95169172  0.62696074  0.14518077  1
  O  O819  1  0.95038471  0.62732069  0.64706367  1
  O  O820  1  0.45665814  0.11930010  0.09390983  1
  O  O821  1  0.46676027  0.11023837  0.58920371  1
  O  O822  1  0.45643348  0.62665215  0.10141501  1
  O  O823  1  0.45586709  0.62841679  0.59885838  1
  O  O824  1  0.53324010  0.38976092  0.41079647  1
  O  O825  1  0.54334179  0.38070001  0.90609072  1
  O  O826  1  0.33716605  0.48090524  0.88244479  1
  O  O827  1  0.33773320  0.97752004  0.38932252  1
  O  O828  1  0.33538517  0.97529977  0.88903995  1
  O  O829  1  0.54413315  0.87158359  0.40114188  1
  O  O830  1  0.54356660  0.87334823  0.89858531  1
  O  O831  1  0.61599139  0.10275850  0.38290693  1
  O  O832  1  0.60690810  0.11483403  0.88069533  1
  O  O833  1  0.60331036  0.62685430  0.38132497  1
  O  O834  1  0.59960693  0.62751427  0.88054154  1
  O  O835  1  0.66374743  0.01860220  0.11315301  1
  O  O836  1  0.67420653  0.00497371  0.62145345  1
  O  O837  1  0.66490849  0.52454705  0.10892587  1
  O  O838  1  0.66249283  0.52188459  0.61090299  1
  O  O839  1  0.90607906  0.87352702  0.63229083  1
  O  O840  1  0.04498700  0.37503883  0.34902835  1
  O  O841  1  0.04411152  0.37546750  0.85058653  1
  O  O842  1  0.04914447  0.87222520  0.35277835  1
  O  O843  1  0.04800898  0.87304425  0.85383942  1
  O  O844  1  0.39441224  0.38453443  0.11567138  1
  O  O845  1  0.38703166  0.38958929  0.61529869  1
  O  O846  1  0.40065480  0.87269895  0.11876271  1
  O  O847  1  0.39792970  0.87370818  0.61849907  1
  O  O848  1  0.45595025  0.62881036  0.59988310  1
  O  O849  1  0.53732924  0.38268067  0.41286812  1
  O  O850  1  0.54350297  0.38045658  0.90862164  1
  O  O851  1  0.54401654  0.87241456  0.40064585  1
  O  O852  1  0.54408798  0.87369657  0.89925905  1
  O  O853  1  0.61296838  0.11041105  0.38470102  1
  O  O854  1  0.60558792  0.11546556  0.88432868  1
  O  O855  1  0.60207052  0.62629218  0.38150171  1
  O  O856  1  0.59934502  0.62730114  0.88123757  1
  O  O857  1  0.66315952  0.01858647  0.11596029  1
  O  O858  1  0.95459023  0.12405052  0.14689731  1
  O  O859  1  0.16310766  0.22505895  0.14048164  1
  O  O860  1  0.16465205  0.22524047  0.64084999  1
  O  O861  1  0.16235179  0.72591430  0.13817704  1
  O  O862  1  0.15944838  0.72777692  0.63977395  1
  O  O863  1  0.09732184  0.12422561  0.36918150  1
  O  O864  1  0.10012637  0.12437171  0.87000189  1
  O  O865  1  0.09339337  0.62637811  0.36699131  1
  O  O866  1  0.09436308  0.62524257  0.86798509  1
  O  O867  1  0.83568190  0.27478583  0.35857568  1
  O  O868  1  0.83660885  0.27470712  0.85870696  1
  O  O869  1  0.66495081  0.72766485  0.11069093  1
  O  O870  1  0.66667137  0.72507178  0.61204819  1
  O  O871  1  0.32838013  0.28345882  0.40292199  1
  O  O872  1  0.83754324  0.27478088  0.86112875  1
  O  O873  1  0.83928622  0.77275951  0.36089232  1
  O  O874  1  0.83745428  0.77395898  0.86187341  1
  O  O875  1  0.83718800  0.47792329  0.36070855  1
  O  O876  1  0.83761951  0.47822857  0.85970802  1
  O  O877  1  0.84182797  0.97568651  0.36262925  1
  O  O878  1  0.84198118  0.97674454  0.86320931  1
  O  O879  1  0.16238073  0.02177106  0.14029275  1
  O  O880  1  0.16281164  0.02207596  0.63929286  1
  O  O881  1  0.15801900  0.52325585  0.13679113  1
  O  O882  1  0.15817214  0.52431391  0.63737106  1
  O  O883  1  0.67226708  0.22109164  0.10061632  1
  O  O884  1  0.67161980  0.21654122  0.59707831  1
  O  O885  1  0.66458610  0.72709442  0.10970972  1
  O  O886  1  0.66660386  0.72456709  0.61159888  1
  O  O887  1  0.32039521  0.28425931  0.39700036  1
  O  O888  1  0.32858055  0.27887807  0.89196354  1
  O  O889  1  0.45520766  0.62528506  0.60162447  1
  O  O890  1  0.54275138  0.37626823  0.39904024  1
  O  O891  1  0.54584880  0.37799493  0.90586635  1
  O  O892  1  0.54346802  0.87400383  0.39814466  1
  O  O893  1  0.54479217  0.87471538  0.89837550  1
  O  O894  1  0.59844625  0.12371566  0.37724725  1
  O  O895  1  0.60612641  0.11619361  0.88370017  1
  O  O896  1  0.59871245  0.62559056  0.38088740  1
  O  O897  1  0.60017230  0.62706346  0.88115387  1
  O  O898  1  0.66389576  0.02014536  0.11616992  1
  O  O899  1  0.54333990  0.38063467  0.90728243  1
  O  O900  1  0.54404621  0.87207470  0.40079094  1
  O  O901  1  0.54373839  0.87346997  0.89895206  1
  O  O902  1  0.61466568  0.10728095  0.38523267  1
  O  O903  1  0.45604730  0.62712482  0.59975147  1
  O  O904  1  0.54156458  0.37971940  0.40532362  1
  O  O905  1  0.54273549  0.37592750  0.89370943  1
  O  O906  1  0.54438364  0.87220929  0.39902945  1
  O  O907  1  0.54403126  0.87129730  0.40075583  1
  O  O908  1  0.54361203  0.87323523  0.89814552  1
  O  O909  1  0.61628080  0.10176470  0.37886981  1
  O  O910  1  0.60681096  0.11512091  0.87958516  1
  O  O911  1  0.60285565  0.62635904  0.38117567  1
  O  O912  1  0.59944953  0.62721133  0.88024158  1
  O  O913  1  0.66380458  0.01858029  0.11176941  1
  O  O914  1  0.67182017  0.00779759  0.61852596  1
  O  O915  1  0.66478506  0.52439349  0.10863667  1
  O  O916  1  0.66215582  0.52138744  0.61044683  1
  O  O917  1  0.33330616  0.77541894  0.38732698  1
  O  O918  1  0.33504450  0.77228750  0.88959658  1
  O  O919  1  0.32902666  0.49321138  0.37843706  1
  O  O920  1  0.33651392  0.48135688  0.88554055  1
  O  O921  1  0.33752476  0.97780847  0.38879038  1
  O  O922  1  0.33527157  0.97548672  0.89069358  1
  O  O923  1  0.95491751  0.12434961  0.14762866  1
  O  O924  1  0.95543522  0.12540950  0.65026310  1
  O  O925  1  0.95192752  0.62689956  0.14519311  1
  O  O926  1  0.95080468  0.62708020  0.64698596  1
  O  O927  1  0.66711979  0.01153046  0.62018799  1
  O  O928  1  0.66454724  0.52448905  0.10998068  1
  O  O929  1  0.66222414  0.52236068  0.61132833  1
  O  O930  1  0.16374304  0.22558828  0.14221112  1
  O  O931  1  0.16360299  0.22559598  0.64256388  1
  O  O932  1  0.16232135  0.72632738  0.13872824  1
  O  O933  1  0.16058757  0.72749999  0.63959598  1
  O  O934  1  0.09759633  0.12424935  0.37028014  1
  O  O935  1  0.09936104  0.12435227  0.87102430  1
  O  O936  1  0.09319048  0.62669470  0.36724340  1
  O  O937  1  0.66435228  0.52390844  0.10784779  1
  O  O938  1  0.66214630  0.52156873  0.61019068  1
  O  O939  1  0.16245706  0.22521934  0.13887162  1
  O  O940  1  0.16501286  0.22547313  0.63973797  1
  O  O941  1  0.16254586  0.72604076  0.13812631  1
  O  O942  1  0.16071356  0.72724044  0.63910734  1
  O  O943  1  0.09753931  0.12444489  0.36815845  1
  O  O944  1  0.10085637  0.12451844  0.86877966  1
  O  O945  1  0.09534329  0.62526628  0.36709553  1
  O  O946  1  0.09592649  0.62522076  0.86775488  1
  O  O947  1  0.66307517  0.52275524  0.60980205  1
  O  O948  1  0.16216828  0.22573120  0.13841676  1
  O  O949  1  0.16405856  0.22614017  0.63921924  1
  O  O950  1  0.15661456  0.52464461  0.63771178  1
  O  O951  1  0.33364439  0.27618972  0.38997638  1
  O  O952  1  0.32949893  0.27620301  0.89877885  1
  O  O953  1  0.33595178  0.77163559  0.38920132  1
  O  O954  1  0.33617838  0.77336296  0.89013843  1
  O  O955  1  0.33610418  0.47985481  0.38383072  1
  O  O956  1  0.33566189  0.77369537  0.89091987  1
  O  O957  1  0.33465618  0.48329057  0.38550480  1
  O  O958  1  0.33664742  0.47985986  0.89138772  1
  O  O959  1  0.83685179  0.77325008  0.85994433  1
  O  O960  1  0.83550255  0.47629034  0.35994780  1
  O  O961  1  0.33639669  0.97675431  0.89055734  1
  O  O962  1  0.95550776  0.12401287  0.14924726  1
  O  O963  1  0.95362413  0.12463295  0.64793031  1
  O  O964  1  0.95455922  0.62563387  0.14792896  1
  O  O965  1  0.95461765  0.62576879  0.64743134  1
  O  O966  1  0.45724860  0.12373180  0.10095934  1
  O  O967  1  0.45415112  0.12200527  0.59413307  1
  O  O968  1  0.45653248  0.62599555  0.10185630  1
  O  O969  1  0.39844699  0.87364856  0.61951927  1
  O  O970  1  0.16412803  0.02266629  0.14180555  1
  O  O971  1  0.95588979  0.12489525  0.64908921  1
  O  O972  1  0.95313151  0.62606706  0.14546159  1
  O  O973  1  0.95272973  0.62634248  0.64673370  1
  O  O974  1  0.45577146  0.12027204  0.09006090  1
  O  O975  1  0.45969203  0.12256543  0.59123517  1
  O  O976  1  0.45537158  0.62578322  0.10067023  1
  O  O977  1  0.54404990  0.87118992  0.40011743  1
  O  O978  1  0.54368144  0.87318260  0.89759032  1
  O  O979  1  0.61470415  0.10430462  0.37674290  1
  O  O980  1  0.60593663  0.11617563  0.87774338  1
  O  O981  1  0.60229303  0.62617639  0.38082288  1
  O  O982  1  0.59899901  0.62687502  0.87990483  1
  O  O983  1  0.66381087  0.01899284  0.11012469  1
  O  O984  1  0.66849923  0.01205067  0.61544082  1
  O  O985  1  0.59814409  0.62621811  0.87942367  1
  O  O986  1  0.66335260  0.02014023  0.10861226  1
  O  O987  1  0.66534401  0.01670950  0.61449524  1
  O  O988  1  0.66317270  0.52281392  0.10680136  1
  O  O989  1  0.39309181  0.38516659  0.11930495  1
  O  O990  1  0.38400860  0.39724149  0.61709342  1
  O  O991  1  0.40039295  0.87248586  0.11945883  1
  O  O992  1  0.39668990  0.87314675  0.61867524  1
  O  O993  1  0.16263299  0.02186140  0.14097372  1
  O  O994  1  0.16234198  0.02216138  0.64063050  1
  O  O995  1  0.15684753  0.52318769  0.13704561  1
  O  O996  1  0.04830861  0.87303975  0.85481984  1
