# generated using pymatgen
data_Li133Fe144(PO4)144
_symmetry_space_group_name_H-M   'P 1'
_cell_length_a   10.31717661
_cell_length_b   12.50533288
_cell_length_c   9.49847070
_cell_angle_alpha   89.99867234
_cell_angle_beta   89.99953748
_cell_angle_gamma   89.99940921
_symmetry_Int_Tables_number   1
_chemical_formula_structural   Li133Fe144(PO4)144
_chemical_formula_sum   'Li133 Fe144 P144 O576'
_cell_volume   1225.49010406
_cell_formula_units_Z   1
loop_
 _symmetry_equiv_pos_site_id
 _symmetry_equiv_pos_as_xyz
  1  'x, y, z'
loop_
 _atom_site_type_symbol
 _atom_site_label
 _atom_site_symmetry_multiplicity
 _atom_site_fract_x
 _atom_site_fract_y
 _atom_site_fract_z
 _atom_site_occupancy
  Li  Li0  1  -0.00057373  0.49906291  0.50079353  1
  Li  Li1  1  0.50000139  0.24999872  0.75000143  1
  Li  Li2  1  0.50548945  0.01701616  0.26040383  1
  Li  Li3  1  0.00057527  0.00094188  0.49920056  1
  Li  Li4  1  -0.00057474  0.49906175  0.00079501  1
  Li  Li5  1  0.00076479  0.00217152  -0.00178068  1
  Li  Li6  1  -0.00076590  0.49783026  0.50177718  1
  Li  Li7  1  0.50000044  0.24999874  0.25000134  1
  Li  Li8  1  0.49999974  0.74999997  0.25000105  1
  Li  Li9  1  0.49999998  0.74999968  0.75000129  1
  Li  Li10  1  0.50349195  0.00420295  0.25950957  1
  Li  Li11  1  0.50548856  0.01701593  0.76040349  1
  Li  Li12  1  0.49650787  0.49579682  0.24048987  1
  Li  Li13  1  0.49451154  0.48298362  0.73959519  1
  Li  Li14  1  0.00149901  0.24937049  -0.00148473  1
  Li  Li15  1  -0.00150092  0.25062942  0.50148364  1
  Li  Li16  1  0.00099308  0.74966759  -0.00050199  1
  Li  Li17  1  -0.00099554  0.75033184  0.50050186  1
  Li  Li18  1  0.00302718  0.00199400  -0.00219955  1
  Li  Li19  1  0.50349113  0.00420291  0.75950971  1
  Li  Li20  1  0.49451069  0.48298348  0.23959600  1
  Li  Li21  1  0.49650792  0.49579639  0.74048823  1
  Li  Li22  1  -0.00149842  0.25062772  0.00148133  1
  Li  Li23  1  0.00149669  0.24937148  0.49851750  1
  Li  Li24  1  -0.00091204  0.00080927  0.50060197  1
  Li  Li25  1  -0.00356951  0.49765588  0.00321244  1
  Li  Li26  1  0.00045955  0.49813698  0.50068809  1
  Li  Li27  1  0.51221695  0.23370770  0.30446691  1
  Li  Li28  1  0.50049497  0.74933176  0.25068554  1
  Li  Li29  1  -0.00099341  0.75033087  0.00050040  1
  Li  Li30  1  0.00099064  0.74966813  0.49949960  1
  Li  Li31  1  0.50512102  0.01076862  0.25615283  1
  Li  Li32  1  0.50621730  0.01182637  0.76873057  1
  Li  Li33  1  0.49364110  0.48708892  0.22688204  1
  Li  Li34  1  0.49435929  0.49478717  0.74247116  1
  Li  Li35  1  -0.00143266  0.24990795  -0.00020513  1
  Li  Li36  1  0.00095907  0.24944840  0.49865537  1
  Li  Li37  1  0.50027730  0.74983777  0.75062657  1
  Li  Li38  1  0.50440852  0.00159236  0.25735882  1
  Li  Li39  1  0.50627860  0.01589819  0.76821734  1
  Li  Li40  1  0.49276625  0.49015736  0.23413422  1
  Li  Li41  1  0.49464030  0.48648497  0.74221276  1
  Li  Li42  1  0.00166566  0.24959911  -0.00036175  1
  Li  Li43  1  -0.00106981  0.25069042  0.50166176  1
  Li  Li44  1  0.00064619  0.74945562  -0.00070744  1
  Li  Li45  1  -0.00056257  0.75004623  0.50016972  1
  Li  Li46  1  0.00073154  0.24970434  0.49915843  1
  Li  Li47  1  -0.00033757  0.75029804  0.00023765  1
  Li  Li48  1  0.00012202  0.75004914  0.50012770  1
  Li  Li49  1  0.00341193  0.00262132  -0.00347867  1
  Li  Li50  1  -0.00194800  0.00141811  0.50041724  1
  Li  Li51  1  -0.00360446  0.49788839  0.00216913  1
  Li  Li52  1  0.00291075  0.49946936  0.49825886  1
  Li  Li53  1  0.49276813  0.26917359  0.63270506  1
  Li  Li54  1  0.49965256  0.75043912  0.24899464  1
  Li  Li55  1  0.49989542  0.74996231  0.74992772  1
  Li  Li56  1  -0.00076695  0.49782901  0.00177873  1
  Li  Li57  1  -0.00333099  0.49786630  0.00202409  1
  Li  Li58  1  0.00414913  0.49949246  0.49805116  1
  Li  Li59  1  0.49278066  0.26756721  0.56663625  1
  Li  Li60  1  0.49953516  0.75056387  0.24878611  1
  Li  Li61  1  0.50030034  0.74931409  0.75084185  1
  Li  Li62  1  0.50556481  0.01152972  0.25799400  1
  Li  Li63  1  0.50490378  0.01317003  0.77153285  1
  Li  Li64  1  0.49473813  0.48811038  0.22510210  1
  Li  Li65  1  0.49383050  0.48845162  0.73971972  1
  Li  Li66  1  -0.00070354  0.24969726  -0.00024934  1
  Li  Li67  1  0.49972297  0.75016123  0.24937501  1
  Li  Li68  1  0.49950586  0.75066712  0.74931679  1
  Li  Li69  1  0.49969954  0.75068484  0.24916006  1
  Li  Li70  1  0.50046521  0.74943484  0.75121588  1
  Li  Li71  1  0.50616862  0.01154731  0.26028001  1
  Li  Li72  1  0.50526106  0.01189006  0.77489744  1
  Li  Li73  1  0.49509528  0.48683019  0.22846664  1
  Li  Li74  1  0.49443503  0.48846946  0.74200583  1
  Li  Li75  1  0.00070532  0.25030043  0.00024668  1
  Li  Li76  1  -0.00073581  0.25029914  0.50084382  1
  Li  Li77  1  0.00033680  0.74969985  -0.00024123  1
  Li  Li78  1  -0.00012574  0.74995057  0.49987349  1
  Li  Li79  1  0.50535938  0.01351491  0.25778689  1
  Li  Li80  1  0.50723328  0.00984205  0.76586550  1
  Li  Li81  1  0.49372116  0.48410142  0.23178299  1
  Li  Li82  1  0.49559099  0.49840791  0.74264020  1
  Li  Li83  1  -0.00166527  0.25039907  0.00036024  1
  Li  Li84  1  0.00106655  0.24931182  0.49833967  1
  Li  Li85  1  -0.00064819  0.75054301  0.00070664  1
  Li  Li86  1  0.00055803  0.74995537  0.49983209  1
  Li  Li87  1  0.00057401  0.00093959  -0.00079745  1
  Li  Li88  1  0.00076644  0.00217391  0.49821792  1
  Li  Li89  1  0.49444425  0.48588244  0.73935508  1
  Li  Li90  1  0.00000071  0.24999826  -0.00000180  1
  Li  Li91  1  -0.00000185  0.25000095  0.50000092  1
  Li  Li92  1  -0.00000009  0.74999882  -0.00000211  1
  Li  Li93  1  -0.00000188  0.74999966  0.50000020  1
  Li  Li94  1  0.00319612  0.00256687  -0.00289811  1
  Li  Li95  1  -0.00340049  0.00084228  0.50138632  1
  Li  Li96  1  -0.00045163  0.75041121  0.00046167  1
  Li  Li97  1  0.00034581  0.75008596  0.50008975  1
  Li  Li98  1  0.00356926  0.00234502  -0.00321433  1
  Li  Li99  1  -0.00045696  0.00186862  0.49930494  1
  Li  Li100  1  -0.00302762  0.49800671  0.00219795  1
  Li  Li101  1  0.00091462  0.49919607  0.49939067  1
  Li  Li102  1  0.48778347  0.26629165  0.69553660  1
  Li  Li103  1  0.50010519  0.75003659  0.25007426  1
  Li  Li104  1  0.50034725  0.74956049  0.75100714  1
  Li  Li105  1  0.50564064  0.00521295  0.25752855  1
  Li  Li106  1  0.50635824  0.01291054  0.77311790  1
  Li  Li107  1  0.49378252  0.48817331  0.23126880  1
  Li  Li108  1  0.00333085  0.00213468  -0.00202597  1
  Li  Li109  1  -0.00409756  0.00052890  0.50194331  1
  Li  Li110  1  -0.00319584  0.49743479  0.00289545  1
  Li  Li111  1  0.00340358  0.49916359  0.49860690  1
  Li  Li112  1  0.50721920  0.23243336  0.43336734  1
  Li  Li113  1  0.00288005  0.00233487  -0.00218710  1
  Li  Li114  1  -0.00444191  0.00049696  0.50178297  1
  Li  Li115  1  -0.00288011  0.49766658  0.00218461  1
  Li  Li116  1  0.00444518  0.49950900  0.49821050  1
  Li  Li117  1  0.49999919  0.25000123  0.49999767  1
  Li  Li118  1  0.49957388  0.75072681  0.24875517  1
  Li  Li119  1  0.50042654  0.74927215  0.75124677  1
  Li  Li120  1  0.50555628  0.01411682  0.26064446  1
  Li  Li121  1  0.50395094  0.01266819  0.77365330  1
  Li  Li122  1  0.49604799  0.48733194  0.22634652  1
  Li  Li123  1  0.00360421  0.00211216  -0.00217111  1
  Li  Li124  1  0.49487924  0.48923079  0.74384721  1
  Li  Li125  1  0.00143381  0.25008954  0.00020129  1
  Li  Li126  1  -0.00096245  0.25055417  0.50134749  1
  Li  Li127  1  0.00045032  0.74958728  -0.00046401  1
  Li  Li128  1  -0.00034875  0.74991251  0.49991102  1
  Li  Li129  1  -0.00290273  0.00053722  0.50173616  1
  Li  Li130  1  -0.00341139  0.49737984  0.00347645  1
  Li  Li131  1  0.00195098  0.49858752  0.49957662  1
  Li  Li132  1  0.50723056  0.23082477  0.36729956  1
  Fe  Fe133  1  0.28346314  0.62324957  0.48333032  1
  Fe  Fe134  1  0.28368449  0.62323416  0.98122467  1
  Fe  Fe135  1  0.21802340  0.37514357  0.23288770  1
  Fe  Fe136  1  0.22183058  0.37457514  0.73719429  1
  Fe  Fe137  1  0.21809035  0.87456087  0.23261268  1
  Fe  Fe138  1  0.77817031  0.12542518  0.76280586  1
  Fe  Fe139  1  0.78191018  0.62543973  0.26738695  1
  Fe  Fe140  1  0.78173153  0.62517159  0.76698520  1
  Fe  Fe141  1  0.78197687  0.12485699  0.26711120  1
  Fe  Fe142  1  0.71638095  0.37470716  0.01576042  1
  Fe  Fe143  1  0.28338157  0.62196937  0.98147190  1
  Fe  Fe144  1  0.21773918  0.37535750  0.23205670  1
  Fe  Fe145  1  0.28013858  0.63043245  0.48448262  1
  Fe  Fe146  1  0.28341375  0.62080914  0.98214708  1
  Fe  Fe147  1  0.21700953  0.37541331  0.23010905  1
  Fe  Fe148  1  0.21925459  0.37530249  0.73932445  1
  Fe  Fe149  1  0.21811591  0.87518159  0.23281384  1
  Fe  Fe150  1  0.21887648  0.87471732  0.73245509  1
  Fe  Fe151  1  0.78067477  0.12493777  0.26433189  1
  Fe  Fe152  1  0.78424565  0.12502493  0.77551998  1
  Fe  Fe153  1  0.71873025  0.87037352  0.51839921  1
  Fe  Fe154  1  0.28230001  0.12436291  0.48607899  1
  Fe  Fe155  1  0.28575094  0.12812464  0.98347867  1
  Fe  Fe156  1  0.21960380  0.37500588  0.73916168  1
  Fe  Fe157  1  0.21813708  0.87480220  0.23256003  1
  Fe  Fe158  1  0.21849061  0.87495923  0.73280573  1
  Fe  Fe159  1  0.78240403  0.12376942  0.26457113  1
  Fe  Fe160  1  0.78302728  0.12502082  0.77362232  1
  Fe  Fe161  1  0.78136322  0.62534236  0.26768202  1
  Fe  Fe162  1  0.78137098  0.62551798  0.76778699  1
  Fe  Fe163  1  0.28474066  0.12556260  0.47941479  1
  Fe  Fe164  1  0.28570486  0.12701685  0.98440475  1
  Fe  Fe165  1  0.28127165  0.62962705  0.48159969  1
  Fe  Fe166  1  0.28329357  0.62063542  0.98201484  1
  Fe  Fe167  1  0.21697331  0.37497799  0.22637658  1
  Fe  Fe168  1  0.21759619  0.37623050  0.73542817  1
  Fe  Fe169  1  0.21862934  0.87448152  0.23221313  1
  Fe  Fe170  1  0.21863739  0.87465710  0.73231845  1
  Fe  Fe171  1  0.78039717  0.12499443  0.26083823  1
  Fe  Fe172  1  0.78142955  0.62563788  0.26761503  1
  Fe  Fe173  1  0.78165395  0.62525873  0.76782675  1
  Fe  Fe174  1  0.71389931  0.37203077  0.01581970  1
  Fe  Fe175  1  0.71596463  0.37555540  0.51914349  1
  Fe  Fe176  1  0.71619114  0.88003945  0.01812397  1
  Fe  Fe177  1  0.71974977  0.86740144  0.51654322  1
  Fe  Fe178  1  0.28109918  0.12318636  0.48558929  1
  Fe  Fe179  1  0.28612682  0.12850642  0.98415139  1
  Fe  Fe180  1  0.27993212  0.63214718  0.48469930  1
  Fe  Fe181  1  0.28364968  0.62004454  0.98231105  1
  Fe  Fe182  1  0.22183081  0.37457492  0.23719411  1
  Fe  Fe183  1  0.21802394  0.37514362  0.73288914  1
  Fe  Fe184  1  0.21826921  0.87482944  0.23301557  1
  Fe  Fe185  1  0.21808973  0.87455976  0.73261245  1
  Fe  Fe186  1  0.71429581  0.37298335  0.01559419  1
  Fe  Fe187  1  0.71525969  0.37443766  0.52058390  1
  Fe  Fe188  1  0.71670656  0.87936473  0.01798505  1
  Fe  Fe189  1  0.71605451  0.37267921  0.51825949  1
  Fe  Fe190  1  0.71653676  0.87675029  0.01666921  1
  Fe  Fe191  1  0.71631537  0.87676488  0.51877685  1
  Fe  Fe192  1  0.28361914  0.12529282  0.48424028  1
  Fe  Fe193  1  0.28394629  0.12732002  0.98173872  1
  Fe  Fe194  1  0.21826849  0.87482847  0.73301584  1
  Fe  Fe195  1  0.78424535  0.12343868  0.26696037  1
  Fe  Fe196  1  0.78226045  0.12464193  0.76794273  1
  Fe  Fe197  1  0.78151030  0.62504085  0.26719477  1
  Fe  Fe198  1  0.78186354  0.62519750  0.76744063  1
  Fe  Fe199  1  0.71424194  0.37199785  0.01572515  1
  Fe  Fe200  1  0.71566317  0.37462065  0.51390699  1
  Fe  Fe201  1  0.71661961  0.87803046  0.01852745  1
  Fe  Fe202  1  0.71846029  0.87297299  0.51576327  1
  Fe  Fe203  1  0.28491584  0.12635602  0.47995873  1
  Fe  Fe204  1  0.28577972  0.12646936  0.98304306  1
  Fe  Fe205  1  0.28244144  0.62658414  0.48084320  1
  Fe  Fe206  1  0.21695911  0.37473243  0.22811763  1
  Fe  Fe207  1  0.21962727  0.37527848  0.73789303  1
  Fe  Fe208  1  0.21813264  0.87516821  0.23263734  1
  Fe  Fe209  1  0.21890231  0.87435839  0.73236298  1
  Fe  Fe210  1  0.77899375  0.12566960  0.26449433  1
  Fe  Fe211  1  0.78351571  0.12579513  0.77404365  1
  Fe  Fe212  1  0.78132708  0.62592751  0.26756577  1
  Fe  Fe213  1  0.78200107  0.62493995  0.76768690  1
  Fe  Fe214  1  0.71380024  0.37140142  0.01589803  1
  Fe  Fe215  1  0.71854665  0.37712177  0.51676595  1
  Fe  Fe216  1  0.78173156  0.62517094  0.26698415  1
  Fe  Fe217  1  0.78191066  0.62544054  0.76738810  1
  Fe  Fe218  1  0.71605348  0.37267943  0.01826002  1
  Fe  Fe219  1  0.71638167  0.37470703  0.51575957  1
  Fe  Fe220  1  0.71631545  0.87676575  0.01877623  1
  Fe  Fe221  1  0.71653654  0.87674915  0.51667029  1
  Fe  Fe222  1  0.28394651  0.12732132  0.48174063  1
  Fe  Fe223  1  0.28361963  0.12529199  0.98423882  1
  Fe  Fe224  1  0.28368450  0.62323451  0.48122327  1
  Fe  Fe225  1  0.28346338  0.62325000  0.98333119  1
  Fe  Fe226  1  0.78060675  0.12593240  0.76999326  1
  Fe  Fe227  1  0.78136420  0.62525959  0.26772786  1
  Fe  Fe228  1  0.78134374  0.62541470  0.76761302  1
  Fe  Fe229  1  0.71422134  0.37353017  0.01695578  1
  Fe  Fe230  1  0.71508558  0.37364402  0.52003997  1
  Fe  Fe231  1  0.71689605  0.87839025  0.01735177  1
  Fe  Fe232  1  0.71755837  0.87341616  0.51915717  1
  Fe  Fe233  1  0.28433808  0.12537960  0.48609216  1
  Fe  Fe234  1  0.28575865  0.12800204  0.98427340  1
  Fe  Fe235  1  0.28153920  0.62702779  0.48423682  1
  Fe  Fe236  1  0.28310497  0.62160968  0.98264804  1
  Fe  Fe237  1  0.21939321  0.37406749  0.23000676  1
  Fe  Fe238  1  0.21575519  0.37656138  0.73303990  1
  Fe  Fe239  1  0.21865698  0.87458492  0.23238736  1
  Fe  Fe240  1  0.21863699  0.87474055  0.73227255  1
  Fe  Fe241  1  0.77816945  0.12542588  0.26280557  1
  Fe  Fe242  1  0.78197744  0.12485581  0.76711150  1
  Fe  Fe243  1  0.28024683  0.63259837  0.48345469  1
  Fe  Fe244  1  0.28380995  0.61996074  0.98187644  1
  Fe  Fe245  1  0.21575395  0.37497462  0.22447897  1
  Fe  Fe246  1  0.21932510  0.37506120  0.73566727  1
  Fe  Fe247  1  0.21834699  0.87474065  0.23217290  1
  Fe  Fe248  1  0.21857117  0.87436250  0.73238513  1
  Fe  Fe249  1  0.78074579  0.12469775  0.26067511  1
  Fe  Fe250  1  0.78299008  0.12458553  0.76988922  1
  Fe  Fe251  1  0.78112403  0.62528167  0.26754538  1
  Fe  Fe252  1  0.78188473  0.62481777  0.76718651  1
  Fe  Fe253  1  0.71424986  0.37187584  0.01652011  1
  Fe  Fe254  1  0.71770061  0.37563690  0.51392042  1
  Fe  Fe255  1  0.71658677  0.87919109  0.01785254  1
  Fe  Fe256  1  0.71986259  0.86956797  0.51551628  1
  Fe  Fe257  1  0.71596214  0.88030485  0.01782322  1
  Fe  Fe258  1  0.72044053  0.86629453  0.51534595  1
  Fe  Fe259  1  0.28145416  0.12287809  0.48323314  1
  Fe  Fe260  1  0.28620096  0.12859900  0.98410094  1
  Fe  Fe261  1  0.27955942  0.63370535  0.48465478  1
  Fe  Fe262  1  0.28403891  0.61969553  0.98217615  1
  Fe  Fe263  1  0.21648432  0.37420482  0.22595494  1
  Fe  Fe264  1  0.22100628  0.37432968  0.73550385  1
  Fe  Fe265  1  0.21799922  0.87505994  0.23231251  1
  Fe  Fe266  1  0.21867373  0.87407256  0.73243418  1
  Fe  Fe267  1  0.78037272  0.12472186  0.26210589  1
  Fe  Fe268  1  0.78304041  0.12526765  0.77188106  1
  Fe  Fe269  1  0.78109755  0.62564132  0.26763865  1
  Fe  Fe270  1  0.78186806  0.62483055  0.76736221  1
  Fe  Fe271  1  0.71387549  0.37149396  0.01584666  1
  Fe  Fe272  1  0.71890268  0.37681437  0.51440906  1
  Fe  Fe273  1  0.71635153  0.87995581  0.01768945  1
  Fe  Fe274  1  0.72006816  0.86785260  0.51530125  1
  Fe  Fe275  1  0.28403694  0.12444458  0.48085544  1
  Fe  Fe276  1  0.28610176  0.12796999  0.98417911  1
  P  P277  1  0.09218194  0.12468033  0.20288002  1
  P  P278  1  0.09146281  0.12500365  0.70249850  1
  P  P279  1  0.09209478  0.62488690  0.20172771  1
  P  P280  1  0.09161923  0.62456221  0.70175586  1
  P  P281  1  0.40562522  0.37799321  0.44928383  1
  P  P282  1  0.40620251  0.37629176  0.94664485  1
  P  P283  1  0.40757674  0.87399183  0.45096215  1
  P  P284  1  0.40633140  0.87280955  0.95095308  1
  P  P285  1  0.59454457  0.12265248  0.04433034  1
  P  P286  1  0.59804315  0.11809942  0.54592174  1
  P  P287  1  0.59334962  0.62597092  0.04820023  1
  P  P288  1  0.59325281  0.62577914  0.54846713  1
  P  P289  1  0.90794470  0.37504764  0.29650191  1
  P  P290  1  0.90706615  0.37560246  0.79610630  1
  P  P291  1  0.90935810  0.87502262  0.29802152  1
  P  P292  1  0.90881518  0.87510221  0.29819799  1
  P  P293  1  0.90992934  0.87466078  0.79950458  1
  P  P294  1  0.40699222  0.37563989  0.95665841  1
  P  P295  1  0.40639551  0.87349801  0.45146563  1
  P  P296  1  0.40712419  0.87441236  0.95146952  1
  P  P297  1  0.59437492  0.12200673  0.05071647  1
  P  P298  1  0.59300765  0.12436052  0.54334137  1
  P  P299  1  0.59287519  0.62558781  0.54853053  1
  P  P300  1  0.90781874  0.37531973  0.29712052  1
  P  P301  1  0.90853797  0.37499649  0.79750183  1
  P  P302  1  0.90790629  0.87511301  0.29827309  1
  P  P303  1  0.90838109  0.87543720  0.79824556  1
  P  P304  1  0.40716420  0.87517525  0.45117475  1
  P  P305  1  0.40582895  0.87292346  0.95229116  1
  P  P306  1  0.09017481  0.62517681  0.70243577  1
  P  P307  1  0.39815032  0.38746273  0.45555202  1
  P  P308  1  0.40481465  0.37732937  0.95477032  1
  P  P309  1  0.59767277  0.12018450  0.55226869  1
  P  P310  1  0.59366837  0.62719114  0.04904675  1
  P  P311  1  0.59242273  0.62600846  0.54903785  1
  P  P312  1  0.09095056  0.62481838  0.20087960  1
  P  P313  1  0.09155040  0.62501513  0.70138375  1
  P  P314  1  0.40232713  0.37981504  0.44773128  1
  P  P315  1  0.90563592  0.37498734  0.29739179  1
  P  P316  1  0.90798255  0.37608730  0.79709668  1
  P  P317  1  0.59404132  0.12364391  0.05079503  1
  P  P318  1  0.09204102  0.12404530  0.20399138  1
  P  P319  1  0.59300748  0.12436023  0.04334162  1
  P  P320  1  0.59437481  0.12200678  0.55071628  1
  P  P321  1  0.59287502  0.62558810  0.04853006  1
  P  P322  1  0.59360417  0.62650213  0.54853409  1
  P  P323  1  0.90853826  0.37499626  0.29750171  1
  P  P324  1  0.90781871  0.37531968  0.79712054  1
  P  P325  1  0.90838125  0.87543814  0.29824581  1
  P  P326  1  0.90790639  0.87511256  0.79827319  1
  P  P327  1  0.09118483  0.62489782  0.70180334  1
  P  P328  1  0.39772566  0.38436750  0.44333826  1
  P  P329  1  0.40595862  0.37635596  0.94920456  1
  P  P330  1  0.40749320  0.87396391  0.45082756  1
  P  P331  1  0.40608025  0.87278805  0.95101361  1
  P  P332  1  0.59518498  0.12267044  0.04522946  1
  P  P333  1  0.60184938  0.11253764  0.54444817  1
  P  P334  1  0.59417065  0.62707733  0.04770812  1
  P  P335  1  0.09281902  0.12488902  0.70376993  1
  P  P336  1  0.08989028  0.62566973  0.20098432  1
  P  P337  1  0.09049773  0.62491066  0.70246281  1
  P  P338  1  0.39548772  0.39126274  0.45203826  1
  P  P339  1  0.40480291  0.37716198  0.95340557  1
  P  P340  1  0.40747816  0.87528080  0.45063934  1
  P  P341  1  0.40538468  0.87251273  0.95223536  1
  P  P342  1  0.59423388  0.12351234  0.04875265  1
  P  P343  1  0.60578224  0.11005312  0.55789543  1
  P  P344  1  0.59432446  0.62734389  0.04848668  1
  P  P345  1  0.91011689  0.87445852  0.79901454  1
  P  P346  1  0.09182926  0.12380819  0.20341652  1
  P  P347  1  0.09378327  0.12494077  0.70294152  1
  P  P348  1  0.08982815  0.62549797  0.20076260  1
  P  P349  1  0.09106405  0.62459819  0.70226701  1
  P  P350  1  0.39421853  0.38994665  0.44210496  1
  P  P351  1  0.40576659  0.37648760  0.95124690  1
  P  P352  1  0.40744446  0.87439675  0.45064936  1
  P  P353  1  0.40567482  0.87265673  0.95151332  1
  P  P354  1  0.59519725  0.12283779  0.04659384  1
  P  P355  1  0.90697636  0.37576191  0.79566981  1
  P  P356  1  0.90982509  0.87482350  0.29756536  1
  P  P357  1  0.90989462  0.87413414  0.79897504  1
  P  P358  1  0.09229985  0.12443025  0.20220517  1
  P  P359  1  0.09355064  0.12501243  0.70266795  1
  P  P360  1  0.09099104  0.62543693  0.20125739  1
  P  P361  1  0.09064234  0.62497748  0.70197966  1
  P  P362  1  0.40195625  0.38190099  0.45407829  1
  P  P363  1  0.40545520  0.37734737  0.95566910  1
  P  P364  1  0.40674653  0.87422125  0.45153294  1
  P  P365  1  0.40665004  0.87402952  0.95179949  1
  P  P366  1  0.59379722  0.12370799  0.05335506  1
  P  P367  1  0.60227474  0.11563227  0.55666155  1
  P  P368  1  0.59391960  0.62721277  0.04898580  1
  P  P369  1  0.59250646  0.62603630  0.54917263  1
  P  P370  1  0.59283430  0.62482491  0.54882575  1
  P  P371  1  0.90740160  0.37506716  0.29660955  1
  P  P372  1  0.60451276  0.10873729  0.54796202  1
  P  P373  1  0.59461463  0.62748775  0.04776436  1
  P  P374  1  0.59251318  0.62471788  0.54936030  1
  P  P375  1  0.90718108  0.37511200  0.29623200  1
  P  P376  1  0.90795929  0.37595294  0.79600910  1
  P  P377  1  0.90950249  0.87508969  0.29753827  1
  P  P378  1  0.91010980  0.87433095  0.79901690  1
  P  P379  1  0.09201795  0.12391212  0.20290352  1
  P  P380  1  0.09436382  0.12501391  0.70260990  1
  P  P381  1  0.09007097  0.62533883  0.20049698  1
  P  P382  1  0.40530468  0.37683946  0.95293745  1
  P  P383  1  0.40762378  0.87485037  0.45044324  1
  P  P384  1  0.40531230  0.87255117  0.95196985  1
  P  P385  1  0.59469548  0.12316028  0.04706255  1
  P  P386  1  0.60563693  0.10741338  0.55494489  1
  P  P387  1  0.59468698  0.62744957  0.04803045  1
  P  P388  1  0.59237596  0.62514991  0.54955653  1
  P  P389  1  0.90707316  0.37520518  0.29648411  1
  P  P390  1  0.90873508  0.37616432  0.79620203  1
  P  P391  1  0.90889080  0.87562623  0.29753497  1
  P  P392  1  0.59255548  0.62560350  0.54935071  1
  P  P393  1  0.90621682  0.37505927  0.29705887  1
  P  P394  1  0.90817120  0.37619012  0.79658439  1
  P  P395  1  0.90893627  0.87540345  0.29773506  1
  P  P396  1  0.91017216  0.87450214  0.79923788  1
  P  P397  1  0.09126488  0.12383378  0.20379875  1
  P  P398  1  0.09292708  0.12479508  0.70351636  1
  P  P399  1  0.08988324  0.62554195  0.20098697  1
  P  P400  1  0.09110921  0.62437411  0.70246584  1
  P  P401  1  0.39436401  0.39258612  0.44505568  1
  P  P402  1  0.90900874  0.87456298  0.79874426  1
  P  P403  1  0.09146244  0.12500354  0.20249827  1
  P  P404  1  0.09218211  0.12468047  0.70288026  1
  P  P405  1  0.09161983  0.62456215  0.20175494  1
  P  P406  1  0.09209409  0.62488715  0.70172830  1
  P  P407  1  0.40699204  0.37563994  0.45665866  1
  P  P408  1  0.40562493  0.37799335  0.94928367  1
  P  P409  1  0.40712414  0.87441224  0.45146892  1
  P  P410  1  0.40639536  0.87349832  0.95146611  1
  P  P411  1  0.90645035  0.37498781  0.29733243  1
  P  P412  1  0.90770057  0.37556909  0.79779549  1
  P  P413  1  0.90845010  0.87498522  0.29861724  1
  P  P414  1  0.90904959  0.87518100  0.79912181  1
  P  P415  1  0.09302401  0.12423717  0.20433030  1
  P  P416  1  0.09259882  0.12493316  0.70339135  1
  P  P417  1  0.09010556  0.62586569  0.20102670  1
  P  P418  1  0.59360399  0.62650222  0.04853333  1
  P  P419  1  0.09293450  0.12439669  0.20389420  1
  P  P420  1  0.09205649  0.12495230  0.70349852  1
  O  O421  1  0.09796746  0.12391719  0.36465454  1
  O  O422  1  0.09698144  0.12437259  0.86443907  1
  O  O423  1  0.39795560  0.87060348  0.61251908  1
  O  O424  1  0.16091443  0.02553533  0.13562572  1
  O  O425  1  0.15964091  0.02488780  0.63677659  1
  O  O426  1  0.15969567  0.52479009  0.13522140  1
  O  O427  1  0.15922224  0.52461142  0.63545327  1
  O  O428  1  0.90149638  0.87488125  0.13661724  1
  O  O429  1  0.90233388  0.87497906  0.63641324  1
  O  O430  1  0.04817959  0.37511353  0.35856055  1
  O  O431  1  0.04876026  0.37514474  0.85875421  1
  O  O432  1  0.04854785  0.87458267  0.35886294  1
  O  O433  1  0.84166603  0.77433198  0.36295990  1
  O  O434  1  0.83924989  0.77596473  0.86521485  1
  O  O435  1  0.83961862  0.47502863  0.36343222  1
  O  O436  1  0.84010498  0.47541571  0.86338325  1
  O  O437  1  0.84114391  0.97368316  0.36596956  1
  O  O438  1  0.84443022  0.97529069  0.86545040  1
  O  O439  1  0.90191322  0.37578456  0.13435178  1
  O  O440  1  0.90252083  0.37593978  0.63424870  1
  O  O441  1  0.90206229  0.87509690  0.13605164  1
  O  O442  1  0.90510389  0.87261244  0.63712743  1
  O  O443  1  0.32848697  0.27987244  0.89428101  1
  O  O444  1  0.89998226  0.37615002  0.13544157  1
  O  O445  1  0.90297202  0.37583379  0.63589242  1
  O  O446  1  0.90174587  0.87528621  0.13705381  1
  O  O447  1  0.09850316  0.62511803  0.36338346  1
  O  O448  1  0.09766519  0.62501994  0.86358879  1
  O  O449  1  0.83926198  0.27512302  0.36192528  1
  O  O450  1  0.83934968  0.27548639  0.86277109  1
  O  O451  1  0.83929176  0.77561677  0.36483660  1
  O  O452  1  0.66068473  0.52552389  0.61368217  1
  O  O453  1  0.16146685  0.22467755  0.13955819  1
  O  O454  1  0.16130199  0.22448733  0.63833328  1
  O  O455  1  0.16056848  0.72437551  0.13458297  1
  O  O456  1  0.15853331  0.72523359  0.63591950  1
  O  O457  1  0.95182123  0.12488645  0.64143891  1
  O  O458  1  0.95093856  0.62538213  0.14120565  1
  O  O459  1  0.95145336  0.62541758  0.64113622  1
  O  O460  1  0.45293322  0.11897877  0.10001042  1
  O  O461  1  0.45290836  0.12495581  0.60895594  1
  O  O462  1  0.45228109  0.62566638  0.10888402  1
  O  O463  1  0.45245806  0.62529344  0.60798411  1
  O  O464  1  0.54706591  0.38102120  0.39998912  1
  O  O465  1  0.54709126  0.37504376  0.89104356  1
  O  O466  1  0.54771793  0.87433393  0.39111447  1
  O  O467  1  0.33879766  0.77431335  0.38308505  1
  O  O468  1  0.33873805  0.77297946  0.88354775  1
  O  O469  1  0.33662128  0.48462196  0.37131912  1
  O  O470  1  0.33763305  0.47713879  0.88060416  1
  O  O471  1  0.33937738  0.97437809  0.38581035  1
  O  O472  1  0.33808661  0.97317265  0.88562792  1
  O  O473  1  0.90266730  0.37593864  0.63483316  1
  O  O474  1  0.90194882  0.87557594  0.13623213  1
  O  O475  1  0.90487088  0.87314686  0.63734880  1
  O  O476  1  0.04729531  0.37425907  0.35638940  1
  O  O477  1  0.04830222  0.37565947  0.85815444  1
  O  O478  1  0.04954762  0.87520447  0.35801066  1
  O  O479  1  0.05066747  0.87365116  0.85990066  1
  O  O480  1  0.39192504  0.38641009  0.11408342  1
  O  O481  1  0.38746426  0.39500580  0.61258291  1
  O  O482  1  0.39789808  0.87004507  0.11355083  1
  O  O483  1  0.84179971  0.97380932  0.36553204  1
  O  O484  1  0.84375473  0.97507253  0.86492238  1
  O  O485  1  0.90167926  0.37586573  0.13473496  1
  O  O486  1  0.90198423  0.37605233  0.63390936  1
  O  O487  1  0.90233987  0.87479770  0.13603522  1
  O  O488  1  0.33784702  0.97418992  0.38635601  1
  O  O489  1  0.33882107  0.97554365  0.38602202  1
  O  O490  1  0.33777543  0.97342229  0.88734271  1
  O  O491  1  0.95290231  0.12473583  0.14238405  1
  O  O492  1  0.95196662  0.12500255  0.64344442  1
  O  O493  1  0.94961623  0.62630952  0.14016195  1
  O  O494  1  0.94957012  0.62552198  0.64200383  1
  O  O495  1  0.45316808  0.11987004  0.10728765  1
  O  O496  1  0.45741075  0.12035496  0.59774167  1
  O  O497  1  0.45270019  0.62606036  0.10815077  1
  O  O498  1  0.16000088  0.02436335  0.13653169  1
  O  O499  1  0.16097385  0.02502852  0.63572428  1
  O  O500  1  0.15534374  0.52463343  0.13356462  1
  O  O501  1  0.16011254  0.52624419  0.63382486  1
  O  O502  1  0.67151346  0.22012656  0.10571948  1
  O  O503  1  0.66851166  0.21516389  0.60227244  1
  O  O504  1  0.66150123  0.72707998  0.11604032  1
  O  O505  1  0.66082236  0.72450759  0.61716824  1
  O  O506  1  0.32686019  0.28494985  0.39419136  1
  O  O507  1  0.32928959  0.27923824  0.89175563  1
  O  O508  1  0.90401159  0.87379310  0.63766389  1
  O  O509  1  0.04675845  0.37406567  0.35669886  1
  O  O510  1  0.04789497  0.37570806  0.85930817  1
  O  O511  1  0.04957864  0.87503131  0.35823836  1
  O  O512  1  0.05052669  0.87374810  0.85981861  1
  O  O513  1  0.39306679  0.38537449  0.11596208  1
  O  O514  1  0.38976193  0.39309399  0.61535558  1
  O  O515  1  0.39870732  0.87121417  0.11381749  1
  O  O516  1  0.33799471  0.47643110  0.89035068  1
  O  O517  1  0.33757580  0.97336781  0.38582140  1
  O  O518  1  0.83898814  0.47504784  0.86341413  1
  O  O519  1  0.33841031  0.97451807  0.88717425  1
  O  O520  1  0.95269686  0.12474505  0.14198712  1
  O  O521  1  0.95164284  0.12517735  0.64293502  1
  O  O522  1  0.95031484  0.62587902  0.14075867  1
  O  O523  1  0.94995767  0.62545568  0.64161856  1
  O  O524  1  0.45333490  0.12305651  0.11341612  1
  O  O525  1  0.45483673  0.11876611  0.60062175  1
  O  O526  1  0.45240687  0.62611294  0.10814371  1
  O  O527  1  0.45169578  0.62668472  0.60878135  1
  O  O528  1  0.54436634  0.37594331  0.39745398  1
  O  O529  1  0.04791535  0.37491564  0.35614526  1
  O  O530  1  0.04822109  0.37530581  0.85736593  1
  O  O531  1  0.05007932  0.87469204  0.35791570  1
  O  O532  1  0.05056736  0.87360955  0.85998197  1
  O  O533  1  0.39280594  0.38612708  0.11186309  1
  O  O534  1  0.38733593  0.39033187  0.60630243  1
  O  O535  1  0.39799420  0.86990426  0.11286819  1
  O  O536  1  0.39784624  0.87058983  0.61158113  1
  O  O537  1  0.15965959  0.02484112  0.63694593  1
  O  O538  1  0.15768915  0.52486723  0.13510306  1
  O  O539  1  0.15826763  0.52542003  0.63497654  1
  O  O540  1  0.66454244  0.22296109  0.11743039  1
  O  O541  1  0.67373648  0.21929809  0.60516468  1
  O  O542  1  0.66102637  0.72700992  0.11668764  1
  O  O543  1  0.66120127  0.72562882  0.61618038  1
  O  O544  1  0.33632511  0.27876638  0.39309588  1
  O  O545  1  0.32835657  0.28003359  0.89820698  1
  O  O546  1  0.33922052  0.77458945  0.38281471  1
  O  O547  1  0.60719396  0.11387282  0.88813630  1
  O  O548  1  0.60215278  0.62941050  0.38841899  1
  O  O549  1  0.60200440  0.63009651  0.88713179  1
  O  O550  1  0.66192348  0.02299077  0.11917516  1
  O  O551  1  0.66678359  0.01100303  0.62952213  1
  O  O552  1  0.66245748  0.52693204  0.11370079  1
  O  O553  1  0.66053138  0.52505306  0.61419338  1
  O  O554  1  0.16071603  0.22430619  0.13955868  1
  O  O555  1  0.16287311  0.22379367  0.63825076  1
  O  O556  1  0.16075092  0.72403622  0.13478888  1
  O  O557  1  0.33916721  0.77548986  0.38283277  1
  O  O558  1  0.33849764  0.77292094  0.88395917  1
  O  O559  1  0.33220594  0.48699164  0.37403839  1
  O  O560  1  0.33746244  0.47784585  0.88259939  1
  O  O561  1  0.33924429  0.97580372  0.38581514  1
  O  O562  1  0.15833436  0.72566863  0.63704222  1
  O  O563  1  0.09722063  0.12415580  0.36558888  1
  O  O564  1  0.09818659  0.12435984  0.86543155  1
  O  O565  1  0.09459953  0.62748436  0.36292161  1
  O  O566  1  0.09821044  0.62450229  0.86393969  1
  O  O567  1  0.83661336  0.27649831  0.36232520  1
  O  O568  1  0.84012252  0.27587848  0.86105291  1
  O  O569  1  0.84168122  0.77445456  0.36281809  1
  O  O570  1  0.83918620  0.77613535  0.86517707  1
  O  O571  1  0.83967876  0.47516559  0.36363738  1
  O  O572  1  0.15922351  0.52461115  0.13545259  1
  O  O573  1  0.15969487  0.52479053  0.63522262  1
  O  O574  1  0.67039092  0.22089762  0.10254327  1
  O  O575  1  0.66283537  0.22324407  0.61294321  1
  O  O576  1  0.66189423  0.72544657  0.11404490  1
  O  O577  1  0.66083245  0.72635030  0.61640912  1
  O  O578  1  0.32960887  0.27910259  0.39745655  1
  O  O579  1  0.33716432  0.27675589  0.88705711  1
  O  O580  1  0.33810476  0.77455341  0.38595498  1
  O  O581  1  0.83929155  0.77561662  0.86483669  1
  O  O582  1  0.84036002  0.47511122  0.36322586  1
  O  O583  1  0.83908769  0.47446524  0.86437442  1
  O  O584  1  0.84077876  0.97538927  0.36454862  1
  O  O585  1  0.84030565  0.97520925  0.86477898  1
  O  O586  1  0.90301792  0.37562743  0.13556199  1
  O  O587  1  0.90203183  0.37608142  0.63534633  1
  O  O588  1  0.90233368  0.87498035  0.13641326  1
  O  O589  1  0.90149692  0.87488028  0.63661775  1
  O  O590  1  0.04876028  0.37514497  0.35875437  1
  O  O591  1  0.54759256  0.87388703  0.89185571  1
  O  O592  1  0.60820099  0.11020429  0.38612447  1
  O  O593  1  0.90300518  0.87440649  0.63732738  1
  O  O594  1  0.04731907  0.37429793  0.35730043  1
  O  O595  1  0.04765388  0.37547369  0.85987135  1
  O  O596  1  0.04922248  0.87493530  0.35863161  1
  O  O597  1  0.04977295  0.87428688  0.85938972  1
  O  O598  1  0.39554150  0.38434177  0.11732956  1
  O  O599  1  0.39179858  0.38979580  0.61387572  1
  O  O600  1  0.39999126  0.87278335  0.11349085  1
  O  O601  1  0.54640445  0.38172466  0.90090844  1
  O  O602  1  0.54793014  0.87548289  0.39236260  1
  O  O603  1  0.16000014  0.22404145  0.13807775  1
  O  O604  1  0.16472112  0.22387662  0.63797305  1
  O  O605  1  0.16088438  0.72377348  0.13469595  1
  O  O606  1  0.33736452  0.97305929  0.88720022  1
  O  O607  1  0.95177935  0.12469374  0.14263419  1
  O  O608  1  0.95208585  0.12508389  0.64385440  1
  O  O609  1  0.94943327  0.62639119  0.14001756  1
  O  O610  1  0.94992159  0.62530795  0.64208391  1
  O  O611  1  0.45336166  0.11909594  0.10405763  1
  O  O612  1  0.45970184  0.12044551  0.59706120  1
  O  O613  1  0.45308027  0.62574559  0.10753438  1
  O  O614  1  0.45159752  0.62671863  0.60818535  1
  O  O615  1  0.54018386  0.38311221  0.40115993  1
  O  O616  1  0.45418205  0.11794924  0.10117502  1
  O  O617  1  0.45981623  0.11688784  0.59883979  1
  O  O618  1  0.45315943  0.62577461  0.10637776  1
  O  O619  1  0.45144908  0.62443272  0.60801949  1
  O  O620  1  0.54029876  0.37955456  0.40293895  1
  O  O621  1  0.54663823  0.38090294  0.89594128  1
  O  O622  1  0.33879792  0.77437166  0.38381943  1
  O  O623  1  0.33897321  0.77299096  0.88331173  1
  O  O624  1  0.33787994  0.47989580  0.37643733  1
  O  O625  1  0.84065590  0.47554929  0.86340905  1
  O  O626  1  0.83984486  0.97388460  0.36601699  1
  O  O627  1  0.84461996  0.97540817  0.86582904  1
  O  O628  1  0.90181174  0.37564164  0.13456913  1
  O  O629  1  0.90277843  0.37584215  0.63441201  1
  O  O630  1  0.90178829  0.87549808  0.13606130  1
  O  O631  1  0.90539772  0.87251478  0.63708035  1
  O  O632  1  0.04797626  0.37454231  0.35616192  1
  O  O633  1  0.04899948  0.37541304  0.85712944  1
  O  O634  1  0.04941401  0.87523082  0.35798040  1
  O  O635  1  0.33916722  0.77365040  0.88359052  1
  O  O636  1  0.33799399  0.47643034  0.39035008  1
  O  O637  1  0.33912790  0.47724473  0.87787337  1
  O  O638  1  0.33863185  0.97470416  0.38682458  1
  O  O639  1  0.33757492  0.97336792  0.88582278  1
  O  O640  1  0.95124039  0.12485505  0.14124483  1
  O  O641  1  0.09793567  0.62490344  0.86394965  1
  O  O642  1  0.83527873  0.27612385  0.36202762  1
  O  O643  1  0.84000110  0.27595730  0.86192399  1
  O  O644  1  0.84153172  0.77446039  0.36310338  1
  O  O645  1  0.83911714  0.77622715  0.86530748  1
  O  O646  1  0.83902773  0.47497132  0.36427789  1
  O  O647  1  0.83999939  0.47563471  0.86346962  1
  O  O648  1  0.83988895  0.97375727  0.36617660  1
  O  O649  1  0.84465709  0.97536649  0.86643722  1
  O  O650  1  0.90092761  0.37591072  0.13507232  1
  O  O651  1  0.16073923  0.22487771  0.63807695  1
  O  O652  1  0.16022818  0.72421928  0.13561614  1
  O  O653  1  0.16070923  0.72438312  0.63516513  1
  O  O654  1  0.16075176  0.02465682  0.13631281  1
  O  O655  1  0.16109912  0.02547039  0.63507322  1
  O  O656  1  0.15755177  0.52455131  0.13396665  1
  O  O657  1  0.15968861  0.52562548  0.63378948  1
  O  O658  1  0.67164276  0.21996638  0.10179252  1
  O  O659  1  0.66367433  0.22123376  0.60690473  1
  O  O660  1  0.66122079  0.72569897  0.11504836  1
  O  O661  1  0.66077898  0.72541087  0.61718518  1
  O  O662  1  0.32626348  0.28070133  0.39483541  1
  O  O663  1  0.33545678  0.27703868  0.88256976  1
  O  O664  1  0.09801530  0.12394623  0.36609079  1
  O  O665  1  0.09832069  0.12413521  0.86526614  1
  O  O666  1  0.09548893  0.62718061  0.36286020  1
  O  O667  1  0.09765816  0.62520218  0.86396643  1
  O  O668  1  0.83523014  0.27560074  0.36197311  1
  O  O669  1  0.66200456  0.02356923  0.60964933  1
  O  O670  1  0.66242427  0.52663318  0.11417831  1
  O  O671  1  0.66136806  0.52529655  0.61317533  1
  O  O672  1  0.16073911  0.22487734  0.13807590  1
  O  O673  1  0.16065224  0.22451375  0.63723059  1
  O  O674  1  0.16070989  0.72438345  0.13516557  1
  O  O675  1  0.16022733  0.72421894  0.63561593  1
  O  O676  1  0.09795250  0.12389063  0.36560521  1
  O  O677  1  0.09795009  0.12427962  0.86539883  1
  O  O678  1  0.09681746  0.62633255  0.36300976  1
  O  O679  1  0.09758250  0.62540654  0.86361943  1
  O  O680  1  0.83709731  0.27521702  0.36225718  1
  O  O681  1  0.83923955  0.27564596  0.86332442  1
  O  O682  1  0.84042831  0.77500423  0.36476926  1
  O  O683  1  0.83957711  0.77603763  0.86528142  1
  O  O684  1  0.04817977  0.37511345  0.85856099  1
  O  O685  1  0.04906307  0.87461819  0.35879327  1
  O  O686  1  0.04854750  0.87458233  0.85886347  1
  O  O687  1  0.39419645  0.38612597  0.10916917  1
  O  O688  1  0.54754122  0.87470722  0.89201557  1
  O  O689  1  0.60580293  0.11387367  0.39083091  1
  O  O690  1  0.83869906  0.27551321  0.36166794  1
  O  O691  1  0.83853473  0.27532186  0.86044345  1
  O  O692  1  0.84146820  0.77476648  0.36408219  1
  O  O693  1  0.83943257  0.77562472  0.86542068  1
  O  O694  1  0.84034209  0.47515837  0.36305608  1
  O  O695  1  0.83837191  0.47460950  0.86377038  1
  O  O696  1  0.84173402  0.97458041  0.36502460  1
  O  O697  1  0.84231101  0.97513324  0.86489768  1
  O  O698  1  0.90204999  0.37572068  0.13460224  1
  O  O699  1  0.90204725  0.37610749  0.63439551  1
  O  O700  1  0.66146152  0.72720883  0.11622087  1
  O  O701  1  0.66068181  0.72485452  0.61783256  1
  O  O702  1  0.33185022  0.28463552  0.39541226  1
  O  O703  1  0.32896021  0.27960265  0.89349650  1
  O  O704  1  0.33931754  0.77514602  0.38216688  1
  O  O705  1  0.33853737  0.77279217  0.88377909  1
  O  O706  1  0.33076534  0.48933760  0.37162184  1
  O  O707  1  0.33820869  0.47718647  0.88125285  1
  O  O708  1  0.33923116  0.97538079  0.38580784  1
  O  O709  1  0.33710559  0.97298493  0.88681752  1
  O  O710  1  0.33859842  0.77333011  0.88448751  1
  O  O711  1  0.33412369  0.48349042  0.37714286  1
  O  O712  1  0.33728986  0.47794259  0.88421145  1
  O  O713  1  0.39796907  0.87127584  0.61209920  1
  O  O714  1  0.16101289  0.02495138  0.13658640  1
  O  O715  1  0.16012598  0.02489996  0.63653034  1
  O  O716  1  0.15624573  0.52492748  0.13507872  1
  O  O717  1  0.15820092  0.52619121  0.63446933  1
  O  O718  1  0.66988681  0.22126831  0.11058168  1
  O  O719  1  0.67580282  0.21679916  0.60633614  1
  O  O720  1  0.83890234  0.47452944  0.36492893  1
  O  O721  1  0.83924918  0.47534267  0.86368765  1
  O  O722  1  0.84031355  0.97437529  0.36621199  1
  O  O723  1  0.84244892  0.97544871  0.86603393  1
  O  O724  1  0.90051541  0.37609308  0.13547346  1
  O  O725  1  0.66283555  0.22324418  0.11294337  1
  O  O726  1  0.90203096  0.37608258  0.13534634  1
  O  O727  1  0.90301877  0.37562653  0.63556235  1
  O  O728  1  0.66083214  0.72634965  0.11640932  1
  O  O729  1  0.66189479  0.72544659  0.61404446  1
  O  O730  1  0.95210570  0.12429212  0.14069145  1
  O  O731  1  0.95324175  0.12593470  0.64330072  1
  O  O732  1  0.94947437  0.62625234  0.14018115  1
  O  O733  1  0.95042199  0.62496897  0.64176163  1
  O  O734  1  0.45411395  0.11777419  0.09951769  1
  O  O735  1  0.45822770  0.11972155  0.59841092  1
  O  O736  1  0.45280761  0.62577298  0.10629822  1
  O  O737  1  0.45180018  0.62458899  0.60793991  1
  O  O738  1  0.54258897  0.37964587  0.40225671  1
  O  O739  1  0.54683159  0.38012941  0.89271148  1
  O  O740  1  0.60445798  0.11565843  0.88266968  1
  O  O741  1  0.60200594  0.62968076  0.38755233  1
  O  O742  1  0.39795171  0.87174395  0.61159271  1
  O  O743  1  0.15989528  0.02458245  0.13661820  1
  O  O744  1  0.16038338  0.02497180  0.63657080  1
  O  O745  1  0.15557069  0.52471009  0.13455070  1
  O  O746  1  0.15885793  0.52631812  0.63403085  1
  O  O747  1  0.67071047  0.22076122  0.10824490  1
  O  O748  1  0.67313984  0.21505032  0.60580848  1
  O  O749  1  0.66137735  0.72712418  0.11633873  1
  O  O750  1  0.66106468  0.72528191  0.61755078  1
  O  O751  1  0.33148891  0.28483599  0.39772747  1
  O  O752  1  0.54766860  0.87495197  0.89247937  1
  O  O753  1  0.60716560  0.11529804  0.38879528  1
  O  O754  1  0.60506938  0.11657612  0.89311337  1
  O  O755  1  0.60034707  0.62872192  0.38772694  1
  O  O756  1  0.60175105  0.63013375  0.88779312  1
  O  O757  1  0.66200703  0.02324759  0.12107369  1
  O  O758  1  0.66211991  0.02010397  0.62356309  1
  O  O759  1  0.66186981  0.52697675  0.11458513  1
  O  O760  1  0.90306664  0.37607498  0.63526847  1
  O  O761  1  0.90191692  0.87551353  0.13663962  1
  O  O762  1  0.15846912  0.72554052  0.63689751  1
  O  O763  1  0.09693335  0.12392360  0.36473213  1
  O  O764  1  0.10001713  0.12385153  0.86456055  1
  O  O765  1  0.09598627  0.62620595  0.36233814  1
  O  O766  1  0.09808116  0.62448648  0.86336212  1
  O  O767  1  0.83785741  0.27576441  0.36159273  1
  O  O768  1  0.83824019  0.27553545  0.85996858  1
  O  O769  1  0.84213303  0.77420709  0.36333690  1
  O  O770  1  0.83940851  0.77564437  0.86538833  1
  O  O771  1  0.83987539  0.47510016  0.36347189  1
  O  O772  1  0.40110914  0.37738026  0.61959649  1
  O  O773  1  0.39795572  0.87060340  0.11251948  1
  O  O774  1  0.40102068  0.87331727  0.61317661  1
  O  O775  1  0.15964089  0.02488787  0.13677590  1
  O  O776  1  0.16091460  0.02553527  0.63562692  1
  O  O777  1  0.16042354  0.72396236  0.13472173  1
  O  O778  1  0.15957347  0.72499580  0.63523212  1
  O  O779  1  0.09698133  0.12437261  0.36443849  1
  O  O780  1  0.09796721  0.12391758  0.86465492  1
  O  O781  1  0.09766633  0.62501949  0.36358750  1
  O  O782  1  0.09850235  0.62511890  0.86338439  1
  O  O783  1  0.83934916  0.27548645  0.36277061  1
  O  O784  1  0.83926247  0.27512272  0.86192563  1
  O  O785  1  0.83977416  0.77578120  0.36438625  1
  O  O786  1  0.59888970  0.12262014  0.88040373  1
  O  O787  1  0.60204342  0.62939751  0.38748062  1
  O  O788  1  0.59897897  0.62668390  0.88682267  1
  O  O789  1  0.66200490  0.02356954  0.10964955  1
  O  O790  1  0.66087126  0.02275506  0.62212676  1
  O  O791  1  0.66136658  0.52529598  0.11317432  1
  O  O792  1  0.66242435  0.52663293  0.61417780  1
  O  O793  1  0.16065240  0.22451341  0.13723033  1
  O  O794  1  0.90241634  0.87459336  0.13638194  1
  O  O795  1  0.90318100  0.87366524  0.63699204  1
  O  O796  1  0.04835846  0.37482262  0.35706511  1
  O  O797  1  0.04730365  0.37525448  0.85801300  1
  O  O798  1  0.05004338  0.87454463  0.35838143  1
  O  O799  1  0.04968546  0.87412177  0.85924107  1
  O  O800  1  0.39493047  0.38342417  0.10688640  1
  O  O801  1  0.39283506  0.38470126  0.61120479  1
  O  O802  1  0.39824790  0.86986683  0.11220660  1
  O  O803  1  0.39965121  0.87127871  0.61227291  1
  O  O804  1  0.67103994  0.22039726  0.10650352  1
  O  O805  1  0.66815035  0.21536426  0.60458745  1
  O  O806  1  0.84036078  0.47511238  0.86322467  1
  O  O807  1  0.84030686  0.97521036  0.36477924  1
  O  O808  1  0.84077803  0.97538784  0.86454852  1
  O  O809  1  0.67039084  0.22089766  0.60254307  1
  O  O810  1  0.04906234  0.87461770  0.85879417  1
  O  O811  1  0.40111020  0.37738074  0.11959607  1
  O  O812  1  0.39419609  0.38612664  0.60916925  1
  O  O813  1  0.40102086  0.87331728  0.11317712  1
  O  O814  1  0.32831416  0.27996765  0.89636290  1
  O  O815  1  0.33887105  0.77550025  0.38312218  1
  O  O816  1  0.95100051  0.12458614  0.14287029  1
  O  O817  1  0.95202416  0.12545759  0.64383799  1
  O  O818  1  0.94943150  0.62641584  0.14003920  1
  O  O819  1  0.95058663  0.62476967  0.64201928  1
  O  O820  1  0.45366418  0.11857446  0.10179392  1
  O  O821  1  0.46008699  0.11664867  0.60086677  1
  O  O822  1  0.45332029  0.62557424  0.10693702  1
  O  O823  1  0.45133520  0.62509477  0.60808552  1
  O  O824  1  0.53991360  0.38335163  0.39913270  1
  O  O825  1  0.54633591  0.38142454  0.89820605  1
  O  O826  1  0.33799261  0.47675194  0.87892552  1
  O  O827  1  0.33931497  0.97447633  0.38631725  1
  O  O828  1  0.33812973  0.97302392  0.88541437  1
  O  O829  1  0.54866465  0.87490529  0.39191506  1
  O  O830  1  0.54667911  0.87442632  0.89306387  1
  O  O831  1  0.61066515  0.10997648  0.39248910  1
  O  O832  1  0.60777515  0.11358971  0.88656065  1
  O  O833  1  0.60225075  0.62900011  0.38864557  1
  O  O834  1  0.60238083  0.63027145  0.88677792  1
  O  O835  1  0.66179144  0.02281330  0.11874704  1
  O  O836  1  0.66923533  0.01066213  0.62838023  1
  O  O837  1  0.66289458  0.52701583  0.11318151  1
  O  O838  1  0.66076784  0.52461937  0.61419185  1
  O  O839  1  0.90450875  0.87281795  0.63714180  1
  O  O840  1  0.04803416  0.37499767  0.35655486  1
  O  O841  1  0.04709890  0.37526220  0.85761441  1
  O  O842  1  0.05043051  0.87447847  0.35799594  1
  O  O843  1  0.05038461  0.87369129  0.85983786  1
  O  O844  1  0.39351824  0.38526252  0.10976762  1
  O  O845  1  0.38679067  0.38982933  0.60743977  1
  O  O846  1  0.39831007  0.87025216  0.11240230  1
  O  O847  1  0.39870793  0.87058523  0.61193176  1
  O  O848  1  0.45162215  0.62723134  0.60834952  1
  O  O849  1  0.54177180  0.38027820  0.40158922  1
  O  O850  1  0.54588544  0.38222561  0.90048198  1
  O  O851  1  0.54819743  0.87540970  0.39205887  1
  O  O852  1  0.54719232  0.87422712  0.89370180  1
  O  O853  1  0.61320918  0.11017026  0.39256007  1
  O  O854  1  0.60648135  0.11473728  0.89023175  1
  O  O855  1  0.60129041  0.62941507  0.38806823  1
  O  O856  1  0.60168911  0.62974881  0.88759718  1
  O  O857  1  0.66236661  0.02286101  0.11939545  1
  O  O858  1  0.95234667  0.12452605  0.14012877  1
  O  O859  1  0.15987893  0.22411955  0.13894869  1
  O  O860  1  0.16338761  0.22350201  0.63767563  1
  O  O861  1  0.16081468  0.72386575  0.13482729  1
  O  O862  1  0.15831970  0.72554576  0.63718362  1
  O  O863  1  0.09733227  0.12405935  0.36516799  1
  O  O864  1  0.09907136  0.12409030  0.86492828  1
  O  O865  1  0.09512668  0.62685193  0.36265284  1
  O  O866  1  0.09804942  0.62442451  0.86376950  1
  O  O867  1  0.83712751  0.27620626  0.36174920  1
  O  O868  1  0.83928483  0.27569230  0.86044302  1
  O  O869  1  0.66126155  0.72702121  0.11645243  1
  O  O870  1  0.66120204  0.72568696  0.61691451  1
  O  O871  1  0.33277035  0.28266683  0.39830433  1
  O  O872  1  0.83982358  0.27598570  0.86246398  1
  O  O873  1  0.84147455  0.77445557  0.36388238  1
  O  O874  1  0.83931101  0.77608815  0.86546949  1
  O  O875  1  0.83863804  0.47474784  0.36513984  1
  O  O876  1  0.83955089  0.47561582  0.86359317  1
  O  O877  1  0.84034733  0.97389900  0.36637175  1
  O  O878  1  0.84413970  0.97532812  0.86668496  1
  O  O879  1  0.16045000  0.02438368  0.13640722  1
  O  O880  1  0.16136383  0.02525387  0.63486298  1
  O  O881  1  0.15586153  0.52467192  0.13331631  1
  O  O882  1  0.15965361  0.52610103  0.63363000  1
  O  O883  1  0.67168573  0.22003186  0.10363696  1
  O  O884  1  0.66722905  0.21733354  0.60169565  1
  O  O885  1  0.66140110  0.72667041  0.11551263  1
  O  O886  1  0.66112747  0.72449994  0.61687773  1
  O  O887  1  0.32419758  0.28320039  0.39366355  1
  O  O888  1  0.33011286  0.27873148  0.88941779  1
  O  O889  1  0.45228154  0.62566647  0.60888528  1
  O  O890  1  0.54709126  0.37504405  0.39104385  1
  O  O891  1  0.54706635  0.38102128  0.89998959  1
  O  O892  1  0.54754157  0.87470693  0.39201539  1
  O  O893  1  0.54771781  0.87433401  0.89111530  1
  O  O894  1  0.59888952  0.12261996  0.38040359  1
  O  O895  1  0.60580280  0.11387291  0.89083116  1
  O  O896  1  0.59897851  0.62668337  0.38682321  1
  O  O897  1  0.60204387  0.62939735  0.88747969  1
  O  O898  1  0.66087217  0.02275551  0.12212728  1
  O  O899  1  0.54581807  0.38204993  0.89882465  1
  O  O900  1  0.54853820  0.87555874  0.39196937  1
  O  O901  1  0.54684004  0.87422556  0.89362304  1
  O  O902  1  0.61266424  0.10966693  0.39369811  1
  O  O903  1  0.45206901  0.62451702  0.60763742  1
  O  O904  1  0.54516296  0.38123405  0.39937748  1
  O  O905  1  0.54666441  0.37694285  0.88658291  1
  O  O906  1  0.54830361  0.87331533  0.39121862  1
  O  O907  1  0.54840213  0.87328142  0.39181509  1
  O  O908  1  0.54691911  0.87425471  0.89246582  1
  O  O909  1  0.61253676  0.10499349  0.38741747  1
  O  O910  1  0.60807511  0.11358961  0.88591607  1
  O  O911  1  0.60204510  0.62825679  0.38840858  1
  O  O912  1  0.60209981  0.62995581  0.88644863  1
  O  O913  1  0.66253742  0.02215405  0.11740089  1
  O  O914  1  0.66779407  0.01300865  0.62596252  1
  O  O915  1  0.66263555  0.52694151  0.11279867  1
  O  O916  1  0.66074930  0.52419823  0.61418573  1
  O  O917  1  0.33892657  0.77471275  0.38245109  1
  O  O918  1  0.33862187  0.77287658  0.88366085  1
  O  O919  1  0.33321508  0.48899643  0.37047813  1
  O  O920  1  0.33807648  0.47700942  0.88082479  1
  O  O921  1  0.33946798  0.97494692  0.38580606  1
  O  O922  1  0.33754268  0.97306856  0.88629798  1
  O  O923  1  0.95169844  0.12434009  0.14184555  1
  O  O924  1  0.95270490  0.12574052  0.64361035  1
  O  O925  1  0.94933356  0.62634985  0.14009932  1
  O  O926  1  0.95045393  0.62479618  0.64198909  1
  O  O927  1  0.66337783  0.01537757  0.62868084  1
  O  O928  1  0.66191322  0.52682801  0.11437115  1
  O  O929  1  0.66062263  0.52562224  0.61418907  1
  O  O930  1  0.16176167  0.22446401  0.14003302  1
  O  O931  1  0.16214328  0.22423580  0.63840780  1
  O  O932  1  0.16059325  0.72435549  0.13461514  1
  O  O933  1  0.15786775  0.72579356  0.63666552  1
  O  O934  1  0.09747859  0.12405805  0.36575285  1
  O  O935  1  0.09808580  0.12421605  0.86564984  1
  O  O936  1  0.09489322  0.62738647  0.36287388  1
  O  O937  1  0.66222434  0.52657849  0.11265614  1
  O  O938  1  0.66117833  0.52445701  0.61397770  1
  O  O939  1  0.16017842  0.22401371  0.13753776  1
  O  O940  1  0.16477034  0.22440014  0.63802797  1
  O  O941  1  0.16069073  0.72391172  0.13453396  1
  O  O942  1  0.15852584  0.72554478  0.63612021  1
  O  O943  1  0.09702726  0.12416459  0.36410845  1
  O  O944  1  0.09948468  0.12390737  0.86452750  1
  O  O945  1  0.09699360  0.62559148  0.36267425  1
  O  O946  1  0.09825278  0.62471378  0.86294747  1
  O  O947  1  0.66215249  0.52581045  0.61364367  1
  O  O948  1  0.16076164  0.22435347  0.13667741  1
  O  O949  1  0.16290365  0.22478396  0.63774446  1
  O  O950  1  0.16015648  0.52611658  0.63398326  1
  O  O951  1  0.33716465  0.27675602  0.38705598  1
  O  O952  1  0.32960853  0.27910310  0.89745661  1
  O  O953  1  0.33916726  0.77364993  0.38359071  1
  O  O954  1  0.33810502  0.77455373  0.88595452  1
  O  O955  1  0.33912746  0.47724426  0.37787296  1
  O  O956  1  0.33877848  0.77430174  0.88495108  1
  O  O957  1  0.33660171  0.47967828  0.37927423  1
  O  O958  1  0.33776069  0.47780481  0.88546936  1
  O  O959  1  0.83977308  0.77578060  0.86438607  1
  O  O960  1  0.83908665  0.47446388  0.36437618  1
  O  O961  1  0.33863137  0.97470401  0.88682534  1
  O  O962  1  0.95182101  0.12488696  0.14143918  1
  O  O963  1  0.95124073  0.12485491  0.64124516  1
  O  O964  1  0.95145401  0.62541721  0.14113589  1
  O  O965  1  0.95093814  0.62538204  0.64120605  1
  O  O966  1  0.45290872  0.12495608  0.10895612  1
  O  O967  1  0.45293314  0.11897901  0.60000963  1
  O  O968  1  0.45245809  0.62529310  0.10798385  1
  O  O969  1  0.39799248  0.87032005  0.61244751  1
  O  O970  1  0.16162865  0.02538958  0.13623031  1
  O  O971  1  0.95268194  0.12570192  0.64270002  1
  O  O972  1  0.95022778  0.62571340  0.14061013  1
  O  O973  1  0.95077852  0.62506484  0.64136810  1
  O  O974  1  0.45359516  0.11827535  0.09909107  1
  O  O975  1  0.45563299  0.12405693  0.60254615  1
  O  O976  1  0.45233110  0.62504820  0.10752065  1
  O  O977  1  0.54837733  0.87276858  0.39165062  1
  O  O978  1  0.54729991  0.87393969  0.89184947  1
  O  O979  1  0.61023749  0.10690607  0.38464473  1
  O  O980  1  0.60693299  0.11462529  0.88403765  1
  O  O981  1  0.60202892  0.62872458  0.38790148  1
  O  O982  1  0.60129152  0.62878668  0.88618157  1
  O  O983  1  0.66270975  0.02205726  0.11578833  1
  O  O984  1  0.66587566  0.01650971  0.62285712  1
  O  O985  1  0.60000760  0.62721729  0.88650873  1
  O  O986  1  0.66223876  0.02219485  0.11452978  1
  O  O987  1  0.66339742  0.02032201  0.62072606  1
  O  O988  1  0.66158928  0.52548235  0.11282506  1
  O  O989  1  0.39222481  0.38641040  0.11343926  1
  O  O990  1  0.38933579  0.39002259  0.60751152  1
  O  O991  1  0.39761773  0.86972920  0.11322213  1
  O  O992  1  0.39774793  0.87100039  0.61135407  1
  O  O993  1  0.15934357  0.02444823  0.13659246  1
  O  O994  1  0.16032291  0.02483412  0.63636557  1
  O  O995  1  0.15538106  0.52459265  0.13417216  1
  O  O996  1  0.05056930  0.87358489  0.85996050  1
