# generated using pymatgen
data_Li133Fe144(PO4)144
_symmetry_space_group_name_H-M   'P 1'
_cell_length_a   10.45864821
_cell_length_b   12.15013700
_cell_length_c   9.54605949
_cell_angle_alpha   89.99946297
_cell_angle_beta   90.00100722
_cell_angle_gamma   89.99784172
_symmetry_Int_Tables_number   1
_chemical_formula_structural   Li133Fe144(PO4)144
_chemical_formula_sum   'Li133 Fe144 P144 O576'
_cell_volume   1213.05604436
_cell_formula_units_Z   1
loop_
 _symmetry_equiv_pos_site_id
 _symmetry_equiv_pos_as_xyz
  1  'x, y, z'
loop_
 _atom_site_type_symbol
 _atom_site_label
 _atom_site_symmetry_multiplicity
 _atom_site_fract_x
 _atom_site_fract_y
 _atom_site_fract_z
 _atom_site_occupancy
  Li  Li0  1  -0.00042695  0.49934258  0.50041561  1
  Li  Li1  1  0.50000056  0.24999972  0.75000067  1
  Li  Li2  1  0.50088796  0.00862842  0.25446276  1
  Li  Li3  1  0.00042545  0.00065775  0.49958336  1
  Li  Li4  1  -0.00042599  0.49934325  0.00041552  1
  Li  Li5  1  0.00047325  0.00101369  -0.00087201  1
  Li  Li6  1  -0.00047419  0.49898580  0.50087153  1
  Li  Li7  1  0.50000065  0.24999974  0.25000063  1
  Li  Li8  1  0.49999996  0.74999969  0.25000049  1
  Li  Li9  1  0.49999982  0.75000043  0.74999990  1
  Li  Li10  1  0.50036010  0.00118111  0.25286682  1
  Li  Li11  1  0.50088783  0.00862840  0.75446348  1
  Li  Li12  1  0.49963947  0.49881827  0.24713254  1
  Li  Li13  1  0.49911124  0.49137128  0.74553689  1
  Li  Li14  1  0.00042815  0.24987877  -0.00013341  1
  Li  Li15  1  -0.00042878  0.25012063  0.50013175  1
  Li  Li16  1  0.00009757  0.75005990  -0.00028162  1
  Li  Li17  1  -0.00009756  0.74993983  0.50028091  1
  Li  Li18  1  0.00217213  0.00072484  -0.00110032  1
  Li  Li19  1  0.50035992  0.00118121  0.75286761  1
  Li  Li20  1  0.49911148  0.49137091  0.24553632  1
  Li  Li21  1  0.49963927  0.49881854  0.74713291  1
  Li  Li22  1  -0.00042925  0.25012157  0.00013348  1
  Li  Li23  1  0.00042830  0.24987817  0.49986520  1
  Li  Li24  1  0.00000307  0.00043067  0.50083412  1
  Li  Li25  1  -0.00192230  0.49951776  0.00148120  1
  Li  Li26  1  -0.00018349  0.49939816  0.50026132  1
  Li  Li27  1  0.50658083  0.23263504  0.30196750  1
  Li  Li28  1  0.50041136  0.74903518  0.25120319  1
  Li  Li29  1  -0.00009715  0.74994056  0.00028143  1
  Li  Li30  1  0.00009705  0.75005912  0.49971751  1
  Li  Li31  1  0.50155023  0.00471641  0.25170667  1
  Li  Li32  1  0.50385807  0.00611203  0.76184637  1
  Li  Li33  1  0.49787582  0.49245028  0.23620483  1
  Li  Li34  1  0.49891913  0.50007487  0.74939381  1
  Li  Li35  1  -0.00052156  0.24965209  -0.00066984  1
  Li  Li36  1  0.00080185  0.24979233  0.49917177  1
  Li  Li37  1  0.50007828  0.75007824  0.75080922  1
  Li  Li38  1  0.50067619  -0.00286542  0.25026436  1
  Li  Li39  1  0.50184697  0.00875628  0.76060014  1
  Li  Li40  1  0.49634742  0.49471954  0.24110056  1
  Li  Li41  1  0.49851005  0.49349453  0.74690172  1
  Li  Li42  1  0.00063709  0.25012021  0.00052508  1
  Li  Li43  1  -0.00063038  0.25024132  0.50092937  1
  Li  Li44  1  -0.00007687  0.74998610  -0.00013469  1
  Li  Li45  1  -0.00037464  0.74969463  0.50022102  1
  Li  Li46  1  0.00033442  0.24986786  0.49967393  1
  Li  Li47  1  -0.00001354  0.75011219  -0.00005287  1
  Li  Li48  1  0.00001876  0.75014940  0.49998299  1
  Li  Li49  1  0.00229271  0.00025360  -0.00165937  1
  Li  Li50  1  -0.00018359  0.00008315  0.50038698  1
  Li  Li51  1  -0.00267216  0.49971401  0.00079106  1
  Li  Li52  1  0.00065768  0.49991855  0.49878973  1
  Li  Li53  1  0.49555960  0.26999103  0.63653953  1
  Li  Li54  1  0.50000801  0.74987748  0.24904550  1
  Li  Li55  1  0.49949245  0.75042219  0.74919089  1
  Li  Li56  1  -0.00047333  0.49898642  0.00087141  1
  Li  Li57  1  -0.00263967  0.49986185  0.00068178  1
  Li  Li58  1  0.00076888  0.50016862  0.49872018  1
  Li  Li59  1  0.49549336  0.26564020  0.56776059  1
  Li  Li60  1  0.50031729  0.75011625  0.24899416  1
  Li  Li61  1  0.49947338  0.74986275  0.75013389  1
  Li  Li62  1  0.50157091  0.00437201  0.25204932  1
  Li  Li63  1  0.50314173  0.00693428  0.76472135  1
  Li  Li64  1  0.49818386  0.49307042  0.23360180  1
  Li  Li65  1  0.49871643  0.49585734  0.74712970  1
  Li  Li66  1  -0.00027163  0.24976377  -0.00050312  1
  Li  Li67  1  0.49992241  0.74992195  0.24919166  1
  Li  Li68  1  0.49958930  0.75096466  0.74879738  1
  Li  Li69  1  0.50052576  0.75013794  0.24986604  1
  Li  Li70  1  0.49968196  0.74988421  0.75100594  1
  Li  Li71  1  0.50128364  0.00414267  0.25287084  1
  Li  Li72  1  0.50181604  0.00692923  0.76639808  1
  Li  Li73  1  0.49685837  0.49306540  0.23527855  1
  Li  Li74  1  0.49842928  0.49562770  0.74795067  1
  Li  Li75  1  0.00026987  0.25023650  0.00050266  1
  Li  Li76  1  -0.00033544  0.25013153  0.50032508  1
  Li  Li77  1  0.00001316  0.74988732  0.00005256  1
  Li  Li78  1  -0.00001895  0.74984972  0.50001562  1
  Li  Li79  1  0.50149011  0.00650539  0.25309801  1
  Li  Li80  1  0.50365213  0.00528041  0.75889928  1
  Li  Li81  1  0.49815279  0.49124351  0.23939966  1
  Li  Li82  1  0.49932384  0.50286544  0.74973622  1
  Li  Li83  1  -0.00063834  0.24987944  -0.00052535  1
  Li  Li84  1  0.00062940  0.24975818  0.49906900  1
  Li  Li85  1  0.00007599  0.75001355  0.00013397  1
  Li  Li86  1  0.00037373  0.75030407  0.49977693  1
  Li  Li87  1  0.00042545  0.00065705  -0.00041655  1
  Li  Li88  1  0.00047282  0.00101466  0.49912716  1
  Li  Li89  1  0.49865396  0.49519725  0.74705681  1
  Li  Li90  1  -0.00000090  0.25000021  -0.00000042  1
  Li  Li91  1  -0.00000070  0.24999990  0.49999955  1
  Li  Li92  1  -0.00000027  0.74999969  -0.00000019  1
  Li  Li93  1  -0.00000006  0.74999964  0.49999900  1
  Li  Li94  1  0.00241766  0.00018044  -0.00138583  1
  Li  Li95  1  -0.00057513  -0.00022934  0.50098032  1
  Li  Li96  1  0.00000196  0.75012881  -0.00000672  1
  Li  Li97  1  0.00027863  0.75029755  0.49986323  1
  Li  Li98  1  0.00192154  0.00048292  -0.00148172  1
  Li  Li99  1  0.00018326  0.00060185  0.49973827  1
  Li  Li100  1  -0.00217296  0.49927554  0.00109936  1
  Li  Li101  1  -0.00000341  0.49956932  0.49916541  1
  Li  Li102  1  0.49341944  0.26736480  0.69803371  1
  Li  Li103  1  0.50050738  0.74957819  0.25080932  1
  Li  Li104  1  0.49999177  0.75012286  0.75095494  1
  Li  Li105  1  0.50108146  -0.00007481  0.25060678  1
  Li  Li106  1  0.50212409  0.00754930  0.76379532  1
  Li  Li107  1  0.49614181  0.49388759  0.23815362  1
  Li  Li108  1  0.00263804  0.00013821  -0.00068224  1
  Li  Li109  1  -0.00076959  -0.00016822  0.50127915  1
  Li  Li110  1  -0.00241932  0.49981962  0.00138549  1
  Li  Li111  1  0.00057475  0.50022986  0.49901868  1
  Li  Li112  1  0.50450691  0.23436057  0.43224170  1
  Li  Li113  1  0.00247970  0.00013169  -0.00090158  1
  Li  Li114  1  -0.00083848  -0.00033456  0.50132997  1
  Li  Li115  1  -0.00248116  0.49986831  0.00090101  1
  Li  Li116  1  0.00083820  0.50033517  0.49866939  1
  Li  Li117  1  0.49999998  0.25000010  0.50000000  1
  Li  Li118  1  0.50053057  0.75021495  0.24926491  1
  Li  Li119  1  0.49946826  0.74978570  0.75073500  1
  Li  Li120  1  0.50134644  0.00480253  0.25294394  1
  Li  Li121  1  0.50187487  0.00717083  0.76709836  1
  Li  Li122  1  0.49812505  0.49282864  0.23290181  1
  Li  Li123  1  0.00267117  0.00028619  -0.00079174  1
  Li  Li124  1  0.49844982  0.49528341  0.74829368  1
  Li  Li125  1  0.00051988  0.25034823  0.00066953  1
  Li  Li126  1  -0.00080229  0.25020734  0.50082722  1
  Li  Li127  1  -0.00000236  0.74987106  0.00000596  1
  Li  Li128  1  -0.00027915  0.74970190  0.50013533  1
  Li  Li129  1  -0.00065771  0.00008181  0.50120982  1
  Li  Li130  1  -0.00229377  0.49974658  0.00165851  1
  Li  Li131  1  0.00018340  0.49991719  0.49961197  1
  Li  Li132  1  0.50444105  0.23000933  0.36346199  1
  Fe  Fe133  1  0.28261568  0.62356850  0.48538752  1
  Fe  Fe134  1  0.28252779  0.62390224  0.98439876  1
  Fe  Fe135  1  0.21806266  0.37487397  0.23465200  1
  Fe  Fe136  1  0.22226313  0.37328930  0.73791602  1
  Fe  Fe137  1  0.21818435  0.87526235  0.23474418  1
  Fe  Fe138  1  0.77773579  0.12671036  0.76208353  1
  Fe  Fe139  1  0.78181523  0.62473995  0.26525588  1
  Fe  Fe140  1  0.78180520  0.62473981  0.76484896  1
  Fe  Fe141  1  0.78193695  0.12512531  0.26534710  1
  Fe  Fe142  1  0.71522225  0.37403767  0.01234168  1
  Fe  Fe143  1  0.28195629  0.62382367  0.98493472  1
  Fe  Fe144  1  0.21806268  0.37556480  0.23436884  1
  Fe  Fe145  1  0.27959665  0.62992090  0.48701329  1
  Fe  Fe146  1  0.28156143  0.62342900  0.98529631  1
  Fe  Fe147  1  0.21813340  0.37535148  0.23288316  1
  Fe  Fe148  1  0.21954406  0.37512821  0.74145415  1
  Fe  Fe149  1  0.21840452  0.87523997  0.23455630  1
  Fe  Fe150  1  0.21863522  0.87490609  0.73646002  1
  Fe  Fe151  1  0.78078140  0.12514934  0.26143891  1
  Fe  Fe152  1  0.78210791  0.12561808  0.77078202  1
  Fe  Fe153  1  0.72037485  0.87122425  0.51461393  1
  Fe  Fe154  1  0.27975841  0.12427267  0.48942338  1
  Fe  Fe155  1  0.28644426  0.12939078  0.98536575  1
  Fe  Fe156  1  0.22035628  0.37456070  0.74047852  1
  Fe  Fe157  1  0.21833069  0.87516658  0.23467830  1
  Fe  Fe158  1  0.21831269  0.87527215  0.73573931  1
  Fe  Fe159  1  0.78349122  0.12399303  0.26217756  1
  Fe  Fe160  1  0.78117869  0.12538115  0.77062061  1
  Fe  Fe161  1  0.78109121  0.62475902  0.26446837  1
  Fe  Fe162  1  0.78111430  0.62483011  0.76566968  1
  Fe  Fe163  1  0.28223824  0.12616689  0.47961057  1
  Fe  Fe164  1  0.28701756  0.12829671  0.98525385  1
  Fe  Fe165  1  0.27962581  0.62877549  0.48538665  1
  Fe  Fe166  1  0.28198904  0.62320396  0.98431887  1
  Fe  Fe167  1  0.21882082  0.37461921  0.22937835  1
  Fe  Fe168  1  0.21650822  0.37600731  0.73782229  1
  Fe  Fe169  1  0.21888493  0.87517110  0.23433066  1
  Fe  Fe170  1  0.21890818  0.87524245  0.73553193  1
  Fe  Fe171  1  0.77964283  0.12543834  0.25952152  1
  Fe  Fe172  1  0.78118712  0.62493242  0.26346243  1
  Fe  Fe173  1  0.78122111  0.62471606  0.76590914  1
  Fe  Fe174  1  0.71253831  0.37108859  0.01459283  1
  Fe  Fe175  1  0.71911111  0.37605729  0.51813552  1
  Fe  Fe176  1  0.71823488  0.87715940  0.01545472  1
  Fe  Fe177  1  0.72215721  0.86771117  0.51278503  1
  Fe  Fe178  1  0.27817890  0.12356215  0.48772256  1
  Fe  Fe179  1  0.28709480  0.12946022  0.98578778  1
  Fe  Fe180  1  0.27819680  0.63165524  0.48729036  1
  Fe  Fe181  1  0.28151542  0.62293603  0.98527312  1
  Fe  Fe182  1  0.22226337  0.37328905  0.23791628  1
  Fe  Fe183  1  0.21806249  0.37487434  0.73465128  1
  Fe  Fe184  1  0.21819468  0.87526102  0.23515137  1
  Fe  Fe185  1  0.21818401  0.87526202  0.73474415  1
  Fe  Fe186  1  0.71298300  0.37170348  0.01474641  1
  Fe  Fe187  1  0.71776238  0.37383350  0.52038938  1
  Fe  Fe188  1  0.71801160  0.87679573  0.01568181  1
  Fe  Fe189  1  0.71586240  0.37202728  0.51691166  1
  Fe  Fe190  1  0.71738447  0.87643165  0.01461304  1
  Fe  Fe191  1  0.71747257  0.87609783  0.51560132  1
  Fe  Fe192  1  0.28477885  0.12596254  0.48765871  1
  Fe  Fe193  1  0.28413775  0.12797282  0.98309096  1
  Fe  Fe194  1  0.21819426  0.87526077  0.73515112  1
  Fe  Fe195  1  0.78428871  0.12377371  0.26453091  1
  Fe  Fe196  1  0.78193656  0.12443420  0.76563095  1
  Fe  Fe197  1  0.78168693  0.62472688  0.26426059  1
  Fe  Fe198  1  0.78166886  0.62483242  0.76532147  1
  Fe  Fe199  1  0.71422229  0.37078119  0.01492175  1
  Fe  Fe200  1  0.71684378  0.37460445  0.51045383  1
  Fe  Fe201  1  0.71804399  0.87617646  0.01506565  1
  Fe  Fe202  1  0.71883998  0.87290989  0.51356178  1
  Fe  Fe203  1  0.28356709  0.12783164  0.47988616  1
  Fe  Fe204  1  0.28645164  0.12751823  0.98550839  1
  Fe  Fe205  1  0.28155708  0.62537076  0.48370010  1
  Fe  Fe206  1  0.21907254  0.37448425  0.23202927  1
  Fe  Fe207  1  0.21931773  0.37513893  0.74105296  1
  Fe  Fe208  1  0.21841254  0.87535246  0.23425607  1
  Fe  Fe209  1  0.21874734  0.87472232  0.73700247  1
  Fe  Fe210  1  0.77993545  0.12533592  0.26054027  1
  Fe  Fe211  1  0.78156958  0.12599222  0.76964105  1
  Fe  Fe212  1  0.78121312  0.62513421  0.26286489  1
  Fe  Fe213  1  0.78138686  0.62463471  0.76586729  1
  Fe  Fe214  1  0.71248173  0.37064608  0.01431427  1
  Fe  Fe215  1  0.72060701  0.37702926  0.51494019  1
  Fe  Fe216  1  0.78180506  0.62474081  0.26484940  1
  Fe  Fe217  1  0.78181562  0.62473869  0.76525594  1
  Fe  Fe218  1  0.71586249  0.37202740  0.01691045  1
  Fe  Fe219  1  0.71522226  0.37403784  0.51234279  1
  Fe  Fe220  1  0.71747255  0.87609742  0.01560117  1
  Fe  Fe221  1  0.71738425  0.87643193  0.51461308  1
  Fe  Fe222  1  0.28413819  0.12797278  0.48308999  1
  Fe  Fe223  1  0.28477831  0.12596297  0.98765927  1
  Fe  Fe224  1  0.28252764  0.62390245  0.48439933  1
  Fe  Fe225  1  0.28261596  0.62356813  0.98538697  1
  Fe  Fe226  1  0.77935016  0.12590740  0.76805122  1
  Fe  Fe227  1  0.78121462  0.62464941  0.26516577  1
  Fe  Fe228  1  0.78139742  0.62484724  0.76547983  1
  Fe  Fe229  1  0.71354845  0.37248228  0.01449253  1
  Fe  Fe230  1  0.71643325  0.37216836  0.52011412  1
  Fe  Fe231  1  0.71781335  0.87646840  0.01527780  1
  Fe  Fe232  1  0.71844319  0.87462924  0.51630069  1
  Fe  Fe233  1  0.28315647  0.12539586  0.48954629  1
  Fe  Fe234  1  0.28577797  0.12921859  0.98507888  1
  Fe  Fe235  1  0.28116009  0.62709014  0.48643895  1
  Fe  Fe236  1  0.28218669  0.62353128  0.98472251  1
  Fe  Fe237  1  0.22064961  0.37409227  0.23194852  1
  Fe  Fe238  1  0.21571064  0.37622594  0.73546835  1
  Fe  Fe239  1  0.21860201  0.87515249  0.23452029  1
  Fe  Fe240  1  0.21878464  0.87534985  0.73483415  1
  Fe  Fe241  1  0.77773605  0.12671000  0.26208286  1
  Fe  Fe242  1  0.78193691  0.12512547  0.76534796  1
  Fe  Fe243  1  0.27784259  0.63228837  0.48721536  1
  Fe  Fe244  1  0.28176494  0.62284044  0.98454548  1
  Fe  Fe245  1  0.21789116  0.37438212  0.22921661  1
  Fe  Fe246  1  0.21921764  0.37485060  0.73856070  1
  Fe  Fe247  1  0.21877856  0.87528467  0.23409103  1
  Fe  Fe248  1  0.21881270  0.87506871  0.73653769  1
  Fe  Fe249  1  0.78045542  0.12487189  0.25854598  1
  Fe  Fe250  1  0.78186639  0.12464954  0.76711615  1
  Fe  Fe251  1  0.78136485  0.62509434  0.26354060  1
  Fe  Fe252  1  0.78159533  0.62476077  0.76544457  1
  Fe  Fe253  1  0.71355647  0.37060928  0.01463402  1
  Fe  Fe254  1  0.72024241  0.37572741  0.51057662  1
  Fe  Fe255  1  0.71843888  0.87657023  0.01470439  1
  Fe  Fe256  1  0.72040370  0.87007881  0.51298753  1
  Fe  Fe257  1  0.71843187  0.87738545  0.01494495  1
  Fe  Fe258  1  0.72296612  0.86636560  0.51192607  1
  Fe  Fe259  1  0.27939390  0.12297122  0.48505984  1
  Fe  Fe260  1  0.28751888  0.12935381  0.98568618  1
  Fe  Fe261  1  0.27703396  0.63363413  0.48807462  1
  Fe  Fe262  1  0.28156789  0.62261423  0.98505502  1
  Fe  Fe263  1  0.21842953  0.37400794  0.23035756  1
  Fe  Fe264  1  0.22006402  0.37466405  0.73945966  1
  Fe  Fe265  1  0.21861315  0.87536701  0.23413288  1
  Fe  Fe266  1  0.21878693  0.87486659  0.73713563  1
  Fe  Fe267  1  0.78068161  0.12486074  0.25894681  1
  Fe  Fe268  1  0.78092633  0.12551577  0.76796942  1
  Fe  Fe269  1  0.78125253  0.62527848  0.26299787  1
  Fe  Fe270  1  0.78158752  0.62464875  0.76574428  1
  Fe  Fe271  1  0.71290600  0.37054005  0.01421252  1
  Fe  Fe272  1  0.72182193  0.37643841  0.51227771  1
  Fe  Fe273  1  0.71848443  0.87706366  0.01472719  1
  Fe  Fe274  1  0.72180325  0.86834462  0.51271011  1
  Fe  Fe275  1  0.28088999  0.12394323  0.48186450  1
  Fe  Fe276  1  0.28746258  0.12891186  0.98540745  1
  P  P277  1  0.09382768  0.12469793  0.20604967  1
  P  P278  1  0.09256679  0.12495067  0.70607257  1
  P  P279  1  0.09339231  0.62501453  0.20534878  1
  P  P280  1  0.09322348  0.62456736  0.70574476  1
  P  P281  1  0.40500363  0.37752287  0.45366792  1
  P  P282  1  0.40579699  0.37650452  0.94980440  1
  P  P283  1  0.40580872  0.87428583  0.45448036  1
  P  P284  1  0.40545644  0.87388331  0.95480152  1
  P  P285  1  0.59443253  0.12301494  0.04273388  1
  P  P286  1  0.59835449  0.11724027  0.54219994  1
  P  P287  1  0.59422103  0.62528356  0.04440046  1
  P  P288  1  0.59436145  0.62489899  0.54457606  1
  P  P289  1  0.90737922  0.37490122  0.29277233  1
  P  P290  1  0.90569156  0.37561236  0.79369104  1
  P  P291  1  0.90839513  0.87506629  0.29396073  1
  P  P292  1  0.90874564  0.87463333  0.29470713  1
  P  P293  1  0.90869266  0.87452336  0.79545697  1
  P  P294  1  0.40666170  0.37489533  0.95708691  1
  P  P295  1  0.40571260  0.87433939  0.45502984  1
  P  P296  1  0.40623068  0.87500087  0.95495624  1
  P  P297  1  0.59499566  0.12247712  0.04633194  1
  P  P298  1  0.59333797  0.12510477  0.54291351  1
  P  P299  1  0.59376877  0.62499930  0.54504420  1
  P  P300  1  0.90617333  0.37530217  0.29394991  1
  P  P301  1  0.90743414  0.37504962  0.79392740  1
  P  P302  1  0.90660915  0.87498489  0.29465070  1
  P  P303  1  0.90677709  0.87543243  0.79425468  1
  P  P304  1  0.40589624  0.87556868  0.45530166  1
  P  P305  1  0.40539375  0.87409793  0.95617738  1
  P  P306  1  0.09090004  0.62502774  0.70613088  1
  P  P307  1  0.39856706  0.38858690  0.45891548  1
  P  P308  1  0.40535565  0.37726694  0.95658441  1
  P  P309  1  0.59737007  0.12050245  0.54884432  1
  P  P310  1  0.59454349  0.62611688  0.04519859  1
  P  P311  1  0.59419093  0.62571428  0.54552032  1
  P  P312  1  0.09208879  0.62504777  0.20487872  1
  P  P313  1  0.09208915  0.62540695  0.70490822  1
  P  P314  1  0.40262961  0.37949728  0.45115591  1
  P  P315  1  0.90555533  0.37533037  0.29454950  1
  P  P316  1  0.90689718  0.37591491  0.79542803  1
  P  P317  1  0.59433961  0.12316222  0.04817169  1
  P  P318  1  0.09309164  0.12403899  0.20565903  1
  P  P319  1  0.59333804  0.12510479  0.04291346  1
  P  P320  1  0.59499561  0.12247710  0.54633188  1
  P  P321  1  0.59376866  0.62499944  0.04504458  1
  P  P322  1  0.59428675  0.62566074  0.54497034  1
  P  P323  1  0.90743433  0.37504976  0.29392703  1
  P  P324  1  0.90617291  0.37530215  0.79395046  1
  P  P325  1  0.90677754  0.87543213  0.29425468  1
  P  P326  1  0.90660880  0.87498516  0.79465071  1
  P  P327  1  0.09125454  0.62536639  0.70529207  1
  P  P328  1  0.39808385  0.38534181  0.44873286  1
  P  P329  1  0.40566011  0.37683792  0.95182841  1
  P  P330  1  0.40592016  0.87431857  0.45455995  1
  P  P331  1  0.40542839  0.87382040  0.95513826  1
  P  P332  1  0.59464424  0.12273322  0.04341567  1
  P  P333  1  0.60143248  0.11141339  0.54108456  1
  P  P334  1  0.59460638  0.62590213  0.04382312  1
  P  P335  1  0.09342722  0.12478438  0.70685240  1
  P  P336  1  0.09092029  0.62577901  0.20503865  1
  P  P337  1  0.09052838  0.62503824  0.70597775  1
  P  P338  1  0.39548485  0.39407623  0.45634091  1
  P  P339  1  0.40531386  0.37734831  0.95520824  1
  P  P340  1  0.40600385  0.87534887  0.45520725  1
  P  P341  1  0.40509556  0.87363771  0.95648840  1
  P  P342  1  0.59442565  0.12272638  0.04611803  1
  P  P343  1  0.60565147  0.10761968  0.55233322  1
  P  P344  1  0.59478708  0.62635639  0.04421543  1
  P  P345  1  0.90926862  0.87430320  0.79525512  1
  P  P346  1  0.09311337  0.12396758  0.20491064  1
  P  P347  1  0.09408108  0.12457303  0.70583490  1
  P  P348  1  0.09087689  0.62567396  0.20456732  1
  P  P349  1  0.09077397  0.62496190  0.70566552  1
  P  P350  1  0.39434815  0.39238020  0.44766667  1
  P  P351  1  0.40557417  0.37727383  0.95388213  1
  P  P352  1  0.40600836  0.87450451  0.45478661  1
  P  P353  1  0.40521268  0.87364383  0.95578528  1
  P  P354  1  0.59468586  0.12265186  0.04479204  1
  P  P355  1  0.90615550  0.37587746  0.79397286  1
  P  P356  1  0.90910029  0.87497165  0.29386821  1
  P  P357  1  0.90875714  0.87413532  0.79471655  1
  P  P358  1  0.09309368  0.12444606  0.20472477  1
  P  P359  1  0.09433210  0.12484455  0.70535783  1
  P  P360  1  0.09190332  0.62562908  0.20535787  1
  P  P361  1  0.09160567  0.62493405  0.70603835  1
  P  P362  1  0.40164498  0.38275978  0.45780032  1
  P  P363  1  0.40556728  0.37698526  0.95726621  1
  P  P364  1  0.40563828  0.87510114  0.45542449  1
  P  P365  1  0.40577846  0.87471661  0.95559982  1
  P  P366  1  0.59420283  0.12349546  0.05019560  1
  P  P367  1  0.60191596  0.11465795  0.55126722  1
  P  P368  1  0.59457173  0.62617982  0.04486205  1
  P  P369  1  0.59407942  0.62568132  0.54544051  1
  P  P370  1  0.59410334  0.62443117  0.54469896  1
  P  P371  1  0.90714692  0.37502063  0.29265220  1
  P  P372  1  0.60451458  0.10592414  0.54365895  1
  P  P373  1  0.59490405  0.62636235  0.04351226  1
  P  P374  1  0.59399579  0.62465108  0.54479304  1
  P  P375  1  0.90657353  0.37521562  0.29314704  1
  P  P376  1  0.90690973  0.37596143  0.79434055  1
  P  P377  1  0.90947191  0.87496127  0.29402118  1
  P  P378  1  0.90908066  0.87422073  0.79496083  1
  P  P379  1  0.09310410  0.12408515  0.20457159  1
  P  P380  1  0.09444581  0.12466988  0.70545017  1
  P  P381  1  0.09130806  0.62547665  0.20454222  1
  P  P382  1  0.40542852  0.37736143  0.95458923  1
  P  P383  1  0.40600722  0.87485829  0.45510463  1
  P  P384  1  0.40497344  0.87342670  0.95640806  1
  P  P385  1  0.59457129  0.12263847  0.04541111  1
  P  P386  1  0.60737959  0.10189091  0.54878982  1
  P  P387  1  0.59502626  0.62657343  0.04359232  1
  P  P388  1  0.59399235  0.62514164  0.54489597  1
  P  P389  1  0.90633455  0.37541321  0.29369006  1
  P  P390  1  0.90698338  0.37597643  0.79474051  1
  P  P391  1  0.90957552  0.87510619  0.29416428  1
  P  P392  1  0.59399141  0.62549546  0.54521416  1
  P  P393  1  0.90591990  0.37542715  0.29416475  1
  P  P394  1  0.90688791  0.37603258  0.79508890  1
  P  P395  1  0.90922650  0.87503796  0.29433356  1
  P  P396  1  0.90912406  0.87432584  0.79543220  1
  P  P397  1  0.09301789  0.12402370  0.20525894  1
  P  P398  1  0.09366656  0.12458716  0.70630958  1
  P  P399  1  0.09073232  0.62569657  0.20474421  1
  P  P400  1  0.09042499  0.62489364  0.70583455  1
  P  P401  1  0.39262014  0.39810930  0.45120992  1
  P  P402  1  0.90809793  0.87437131  0.79464180  1
  P  P403  1  0.09256664  0.12495048  0.20607257  1
  P  P404  1  0.09382790  0.12469807  0.70604943  1
  P  P405  1  0.09322384  0.62456741  0.20574466  1
  P  P406  1  0.09339191  0.62501452  0.70534892  1
  P  P407  1  0.40666168  0.37489539  0.45708657  1
  P  P408  1  0.40500376  0.37752299  0.95366816  1
  P  P409  1  0.40623069  0.87500069  0.45495595  1
  P  P410  1  0.40571256  0.87433962  0.95503008  1
  P  P411  1  0.90566891  0.37515590  0.29464134  1
  P  P412  1  0.90690724  0.37555455  0.79527489  1
  P  P413  1  0.90791160  0.87459278  0.29509133  1
  P  P414  1  0.90791215  0.87495244  0.79512102  1
  P  P415  1  0.09384532  0.12412269  0.20602685  1
  P  P416  1  0.09285354  0.12497975  0.70734761  1
  P  P417  1  0.09124374  0.62586448  0.20528272  1
  P  P418  1  0.59428668  0.62566073  0.04497056  1
  P  P419  1  0.09430943  0.12438799  0.20630873  1
  P  P420  1  0.09262152  0.12509909  0.70722708  1
  O  O421  1  0.09974975  0.12456460  0.36665234  1
  O  O422  1  0.09842053  0.12471185  0.86671322  1
  O  O423  1  0.39977911  0.87358347  0.61543001  1
  O  O424  1  0.16307057  0.02298302  0.13828410  1
  O  O425  1  0.16170898  0.02257203  0.63926691  1
  O  O426  1  0.16214651  0.52301124  0.13781118  1
  O  O427  1  0.16218490  0.52251268  0.63901614  1
  O  O428  1  0.90134025  0.87493874  0.13404172  1
  O  O429  1  0.90195672  0.87485143  0.63360101  1
  O  O430  1  0.04502796  0.37533471  0.35274685  1
  O  O431  1  0.04602698  0.37498278  0.85287361  1
  O  O432  1  0.04526227  0.87479349  0.35369956  1
  O  O433  1  0.83985100  0.77237679  0.36079801  1
  O  O434  1  0.83817037  0.77300295  0.86195365  1
  O  O435  1  0.83743609  0.47744238  0.36142537  1
  O  O436  1  0.83760453  0.47765349  0.86103377  1
  O  O437  1  0.84072825  0.97610359  0.36234415  1
  O  O438  1  0.84210210  0.97677823  0.86285032  1
  O  O439  1  0.90005485  0.37549054  0.13272315  1
  O  O440  1  0.90124395  0.37571801  0.63342291  1
  O  O441  1  0.90408862  0.87480725  0.13355426  1
  O  O442  1  0.90492650  0.87282077  0.63434290  1
  O  O443  1  0.33039629  0.27750078  0.89297276  1
  O  O444  1  0.89973747  0.37562081  0.13398557  1
  O  O445  1  0.90180317  0.37554872  0.63455686  1
  O  O446  1  0.90247494  0.87509321  0.13455366  1
  O  O447  1  0.09866007  0.62506071  0.36595834  1
  O  O448  1  0.09804312  0.62514847  0.86639994  1
  O  O449  1  0.83788129  0.27273852  0.36079019  1
  O  O450  1  0.83791680  0.27301179  0.86051863  1
  O  O451  1  0.83715733  0.77289532  0.36145484  1
  O  O452  1  0.66355758  0.52332023  0.61183514  1
  O  O453  1  0.16333834  0.22691221  0.14050916  1
  O  O454  1  0.16237810  0.22696270  0.64062316  1
  O  O455  1  0.16220862  0.72713302  0.13818120  1
  O  O456  1  0.16152927  0.72703423  0.63904585  1
  O  O457  1  0.95497362  0.12466525  0.64725149  1
  O  O458  1  0.95461866  0.62500490  0.14624893  1
  O  O459  1  0.95473863  0.62520591  0.64630036  1
  O  O460  1  0.45420341  0.12080500  0.09546836  1
  O  O461  1  0.45563714  0.12431395  0.60414054  1
  O  O462  1  0.45532336  0.62548409  0.10415807  1
  O  O463  1  0.45569698  0.62530551  0.60414149  1
  O  O464  1  0.54579673  0.37919551  0.40453246  1
  O  O465  1  0.54436249  0.37568586  0.89586059  1
  O  O466  1  0.54467602  0.87451584  0.39584288  1
  O  O467  1  0.33532482  0.77344492  0.38534388  1
  O  O468  1  0.33565620  0.77186855  0.88786636  1
  O  O469  1  0.33376897  0.48682090  0.37599786  1
  O  O470  1  0.33692136  0.48023996  0.88218255  1
  O  O471  1  0.33676357  0.97700523  0.38833299  1
  O  O472  1  0.33582889  0.97544311  0.88786572  1
  O  O473  1  0.90124455  0.37567627  0.63424677  1
  O  O474  1  0.90371241  0.87494571  0.13391032  1
  O  O475  1  0.90525195  0.87317501  0.63479787  1
  O  O476  1  0.04449629  0.37495595  0.35323173  1
  O  O477  1  0.04546524  0.37553889  0.85431062  1
  O  O478  1  0.04741397  0.87471525  0.35456395  1
  O  O479  1  0.04766518  0.87321319  0.85528565  1
  O  O480  1  0.39468333  0.38413694  0.11486715  1
  O  O481  1  0.38864686  0.39669999  0.61533761  1
  O  O482  1  0.40035619  0.87314198  0.11701488  1
  O  O483  1  0.84054070  0.97645476  0.36172888  1
  O  O484  1  0.84129607  0.97662222  0.86236232  1
  O  O485  1  0.90049421  0.37545491  0.13214189  1
  O  O486  1  0.90126067  0.37578310  0.63316253  1
  O  O487  1  0.90381552  0.87468210  0.13334951  1
  O  O488  1  0.33635160  0.97699750  0.38798336  1
  O  O489  1  0.33672294  0.97808119  0.38865412  1
  O  O490  1  0.33579950  0.97615332  0.88989215  1
  O  O491  1  0.95547423  0.12461451  0.14595503  1
  O  O492  1  0.95445988  0.12493961  0.64833030  1
  O  O493  1  0.95277176  0.62653616  0.14557396  1
  O  O494  1  0.95253020  0.62569522  0.64611092  1
  O  O495  1  0.45550715  0.12195169  0.10456815  1
  O  O496  1  0.45954695  0.11943437  0.59341576  1
  O  O497  1  0.45609395  0.62686517  0.10404489  1
  O  O498  1  0.16235974  0.02214342  0.13843033  1
  O  O499  1  0.16330232  0.02256475  0.63748831  1
  O  O500  1  0.15768387  0.52311067  0.13634942  1
  O  O501  1  0.15979945  0.52396946  0.63705364  1
  O  O502  1  0.66960341  0.22249944  0.10702737  1
  O  O503  1  0.66988343  0.21487285  0.59901917  1
  O  O504  1  0.66463224  0.72810674  0.11123048  1
  O  O505  1  0.66451484  0.72529707  0.61452565  1
  O  O506  1  0.32718484  0.28416522  0.39813627  1
  O  O507  1  0.33113857  0.27727061  0.89099448  1
  O  O508  1  0.90422127  0.87398724  0.63482427  1
  O  O509  1  0.04429654  0.37514735  0.35350180  1
  O  O510  1  0.04550628  0.37578278  0.85474556  1
  O  O511  1  0.04707866  0.87437726  0.35452275  1
  O  O512  1  0.04734982  0.87345388  0.85490088  1
  O  O513  1  0.39505410  0.38385372  0.11644406  1
  O  O514  1  0.39013978  0.39392373  0.61720189  1
  O  O515  1  0.40063444  0.87346295  0.11679619  1
  O  O516  1  0.33673902  0.47792591  0.88923097  1
  O  O517  1  0.33527782  0.97547203  0.38726811  1
  O  O518  1  0.83698414  0.47756791  0.86105763  1
  O  O519  1  0.33642526  0.97710918  0.88983067  1
  O  O520  1  0.95584562  0.12457460  0.14621804  1
  O  O521  1  0.95410280  0.12501784  0.64838444  1
  O  O522  1  0.95333411  0.62610563  0.14597463  1
  O  O523  1  0.95309127  0.62565446  0.64632874  1
  O  O524  1  0.45577366  0.12446840  0.10991475  1
  O  O525  1  0.45666796  0.11976993  0.59601710  1
  O  O526  1  0.45588309  0.62653892  0.10402478  1
  O  O527  1  0.45555367  0.62700263  0.60383611  1
  O  O528  1  0.54186323  0.37695902  0.40207514  1
  O  O529  1  0.04494059  0.37495702  0.35242171  1
  O  O530  1  0.04535743  0.37530988  0.85369724  1
  O  O531  1  0.04777380  0.87445735  0.35413742  1
  O  O532  1  0.04755952  0.87323928  0.85489563  1
  O  O533  1  0.39420135  0.38460578  0.11316641  1
  O  O534  1  0.38867528  0.39371346  0.60977295  1
  O  O535  1  0.40031506  0.87309849  0.11634601  1
  O  O536  1  0.39831459  0.87120501  0.61483427  1
  O  O537  1  0.16192723  0.02287482  0.63958280  1
  O  O538  1  0.15990227  0.52324431  0.13793905  1
  O  O539  1  0.16003321  0.52299306  0.63880451  1
  O  O540  1  0.66593203  0.22444947  0.11647188  1
  O  O541  1  0.67222154  0.22134838  0.60727949  1
  O  O542  1  0.66392645  0.72824285  0.11260114  1
  O  O543  1  0.66418538  0.72718635  0.61371414  1
  O  O544  1  0.33322352  0.27811956  0.39494922  1
  O  O545  1  0.33035703  0.27701900  0.89566097  1
  O  O546  1  0.33608283  0.77343724  0.38686564  1
  O  O547  1  0.60579807  0.11539451  0.88683361  1
  O  O548  1  0.60168555  0.62879517  0.38516613  1
  O  O549  1  0.59968473  0.62690207  0.88365448  1
  O  O550  1  0.66309115  0.01976016  0.11726214  1
  O  O551  1  0.66931471  0.00782497  0.62645637  1
  O  O552  1  0.66443904  0.52464538  0.11125132  1
  O  O553  1  0.66330143  0.52270598  0.61152067  1
  O  O554  1  0.16263139  0.22625621  0.14018162  1
  O  O555  1  0.16369756  0.22614546  0.63940657  1
  O  O556  1  0.16183013  0.72699689  0.13804709  1
  O  O557  1  0.33548458  0.77470325  0.38547470  1
  O  O558  1  0.33536733  0.77189343  0.88876992  1
  O  O559  1  0.33050605  0.49119380  0.37658965  1
  O  O560  1  0.33630373  0.48039304  0.88486587  1
  O  O561  1  0.33665816  0.97821414  0.38917827  1
  O  O562  1  0.16014926  0.72762295  0.63920267  1
  O  O563  1  0.09888071  0.12431235  0.36619577  1
  O  O564  1  0.10028334  0.12447558  0.86672089  1
  O  O565  1  0.09428137  0.62736764  0.36539162  1
  O  O566  1  0.09593366  0.62504722  0.86622506  1
  O  O567  1  0.83570255  0.27423164  0.36121217  1
  O  O568  1  0.83759396  0.27380139  0.86036273  1
  O  O569  1  0.84031424  0.77212132  0.36064196  1
  O  O570  1  0.83813828  0.77313639  0.86211644  1
  O  O571  1  0.83714779  0.47759261  0.36201829  1
  O  O572  1  0.16218462  0.52251266  0.13901530  1
  O  O573  1  0.16214661  0.52301112  0.63781174  1
  O  O574  1  0.66875411  0.22435557  0.10566830  1
  O  O575  1  0.66429721  0.22529108  0.61217131  1
  O  O576  1  0.66358069  0.72692659  0.11194862  1
  O  O577  1  0.66313534  0.72805853  0.61221669  1
  O  O578  1  0.33124593  0.27564454  0.39433181  1
  O  O579  1  0.33570201  0.27470889  0.88782871  1
  O  O580  1  0.33641846  0.77307369  0.38805179  1
  O  O581  1  0.83715674  0.77289589  0.86145515  1
  O  O582  1  0.83829257  0.47742865  0.36073411  1
  O  O583  1  0.83692880  0.47701611  0.86171719  1
  O  O584  1  0.83781632  0.97748709  0.36098462  1
  O  O585  1  0.83785449  0.97698906  0.86218920  1
  O  O586  1  0.90157981  0.37528836  0.13328695  1
  O  O587  1  0.90025004  0.37543593  0.63334819  1
  O  O588  1  0.90195716  0.87485123  0.13360035  1
  O  O589  1  0.90133961  0.87493918  0.63404230  1
  O  O590  1  0.04602716  0.37498247  0.35287347  1
  O  O591  1  0.54411699  0.87346105  0.89597569  1
  O  O592  1  0.60769709  0.11081269  0.38390728  1
  O  O593  1  0.90291711  0.87460369  0.63453868  1
  O  O594  1  0.04458868  0.37529107  0.35336102  1
  O  O595  1  0.04545505  0.37548143  0.85467809  1
  O  O596  1  0.04651951  0.87425557  0.35422584  1
  O  O597  1  0.04662804  0.87409648  0.85431586  1
  O  O598  1  0.39632886  0.38225231  0.11763738  1
  O  O599  1  0.39230194  0.38918739  0.61609292  1
  O  O600  1  0.40097802  0.87415357  0.11628562  1
  O  O601  1  0.54503427  0.37974764  0.90542769  1
  O  O602  1  0.54449238  0.87448056  0.39721755  1
  O  O603  1  0.16209984  0.22616664  0.13887052  1
  O  O604  1  0.16432961  0.22604398  0.63842091  1
  O  O605  1  0.16193280  0.72682530  0.13773714  1
  O  O606  1  0.33534861  0.97544794  0.88976980  1
  O  O607  1  0.95464391  0.12469044  0.14630175  1
  O  O608  1  0.95505993  0.12504289  0.64757798  1
  O  O609  1  0.95244138  0.62676041  0.14510378  1
  O  O610  1  0.95222658  0.62554217  0.64586168  1
  O  O611  1  0.45511323  0.12056074  0.09952379  1
  O  O612  1  0.46192098  0.11628391  0.59251358  1
  O  O613  1  0.45638741  0.62697739  0.10355559  1
  O  O614  1  0.45517061  0.62764783  0.60219725  1
  O  O615  1  0.53799826  0.38725425  0.40700737  1
  O  O616  1  0.45533590  0.12019400  0.09729447  1
  O  O617  1  0.46200127  0.11274640  0.59299358  1
  O  O618  1  0.45649698  0.62678579  0.10282590  1
  O  O619  1  0.45506343  0.62620926  0.60190343  1
  O  O620  1  0.53807877  0.38371620  0.40748755  1
  O  O621  1  0.54488652  0.37943952  0.90047683  1
  O  O622  1  0.33581412  0.77281404  0.38628654  1
  O  O623  1  0.33607346  0.77175747  0.88739929  1
  O  O624  1  0.33589689  0.48197239  0.38024258  1
  O  O625  1  0.83775159  0.47775501  0.86126869  1
  O  O626  1  0.84048593  0.97594631  0.36274799  1
  O  O627  1  0.84265959  0.97696210  0.86329125  1
  O  O628  1  0.89971725  0.37552462  0.13327966  1
  O  O629  1  0.90111957  0.37568778  0.63380457  1
  O  O630  1  0.90406597  0.87495236  0.13377515  1
  O  O631  1  0.90571845  0.87263172  0.63460880  1
  O  O632  1  0.04476694  0.37488478  0.35287644  1
  O  O633  1  0.04553445  0.37530876  0.85372627  1
  O  O634  1  0.04778811  0.87470414  0.35434661  1
  O  O635  1  0.33686425  0.77194178  0.88778321  1
  O  O636  1  0.33673879  0.47792617  0.38923120  1
  O  O637  1  0.33697927  0.47901574  0.88171986  1
  O  O638  1  0.33629054  0.97686392  0.38846628  1
  O  O639  1  0.33527742  0.97547214  0.88726873  1
  O  O640  1  0.95397405  0.12501779  0.14712541  1
  O  O641  1  0.09591089  0.62519217  0.86644595  1
  O  O642  1  0.83567137  0.27395579  0.36157988  1
  O  O643  1  0.83790203  0.27383302  0.86113035  1
  O  O644  1  0.83979617  0.77236398  0.36108066  1
  O  O645  1  0.83806806  0.77317452  0.86226358  1
  O  O646  1  0.83669873  0.47743526  0.36251292  1
  O  O647  1  0.83764079  0.47785622  0.86157073  1
  O  O648  1  0.84020136  0.97603074  0.36294659  1
  O  O649  1  0.84231747  0.97688943  0.86365130  1
  O  O650  1  0.89960253  0.37563770  0.13368621  1
  O  O651  1  0.16212034  0.22726165  0.63921070  1
  O  O652  1  0.16286976  0.72660520  0.13880930  1
  O  O653  1  0.16284374  0.72710414  0.63854518  1
  O  O654  1  0.16245075  0.02229929  0.13840763  1
  O  O655  1  0.16360760  0.02309983  0.63746331  1
  O  O656  1  0.15997012  0.52283499  0.13692037  1
  O  O657  1  0.16043081  0.52348286  0.63657692  1
  O  O658  1  0.66964281  0.22298105  0.10433948  1
  O  O659  1  0.66677653  0.22188037  0.60505067  1
  O  O660  1  0.66428830  0.72693009  0.11165242  1
  O  O661  1  0.66391671  0.72656301  0.61313499  1
  O  O662  1  0.32777795  0.27865170  0.39272067  1
  O  O663  1  0.33406814  0.27555070  0.88352784  1
  O  O664  1  0.09873956  0.12421697  0.36683776  1
  O  O665  1  0.09950661  0.12454507  0.86785807  1
  O  O666  1  0.09610120  0.62679898  0.36587853  1
  O  O667  1  0.09618433  0.62531763  0.86665089  1
  O  O668  1  0.83623842  0.27335702  0.36180694  1
  O  O669  1  0.66326099  0.02207396  0.61076848  1
  O  O670  1  0.66472192  0.52452858  0.11273189  1
  O  O671  1  0.66370955  0.52313653  0.61153368  1
  O  O672  1  0.16212059  0.22726101  0.13921039  1
  O  O673  1  0.16208507  0.22698779  0.63948230  1
  O  O674  1  0.16284376  0.72710430  0.13854533  1
  O  O675  1  0.16286949  0.72660516  0.63880928  1
  O  O676  1  0.09925988  0.12429369  0.36699858  1
  O  O677  1  0.09927442  0.12465096  0.86780243  1
  O  O678  1  0.09719923  0.62618468  0.36594933  1
  O  O679  1  0.09681574  0.62539897  0.86661343  1
  O  O680  1  0.83720791  0.27282597  0.36185391  1
  O  O681  1  0.83764333  0.27344938  0.86182570  1
  O  O682  1  0.83812447  0.77265440  0.36184138  1
  O  O683  1  0.83770018  0.77332405  0.86199270  1
  O  O684  1  0.04502739  0.37533518  0.85274721  1
  O  O685  1  0.04538252  0.87499487  0.35375105  1
  O  O686  1  0.04526200  0.87479412  0.85369946  1
  O  O687  1  0.39492947  0.38390664  0.11221099  1
  O  O688  1  0.54430252  0.87469467  0.89585944  1
  O  O689  1  0.60506961  0.11609345  0.38778905  1
  O  O690  1  0.83762266  0.27303754  0.35937770  1
  O  O691  1  0.83666265  0.27308797  0.85949195  1
  O  O692  1  0.83847193  0.77296612  0.36095550  1
  O  O693  1  0.83779233  0.77286710  0.86181995  1
  O  O694  1  0.83807309  0.47712514  0.36041745  1
  O  O695  1  0.83639815  0.47723093  0.86127747  1
  O  O696  1  0.83996749  0.97700748  0.36119552  1
  O  O697  1  0.84009811  0.97675573  0.86206140  1
  O  O698  1  0.90072582  0.37534978  0.13219752  1
  O  O699  1  0.90074047  0.37570651  0.63300150  1
  O  O700  1  0.66477755  0.72835016  0.11121587  1
  O  O701  1  0.66471851  0.72538745  0.61533892  1
  O  O702  1  0.32912066  0.28709847  0.40059211  1
  O  O703  1  0.33088000  0.27742988  0.89179719  1
  O  O704  1  0.33528083  0.77461283  0.38466143  1
  O  O705  1  0.33522199  0.77165012  0.88878472  1
  O  O706  1  0.32836370  0.49486010  0.37233849  1
  O  O707  1  0.33665173  0.48026588  0.88355755  1
  O  O708  1  0.33666157  0.97780928  0.38895534  1
  O  O709  1  0.33521824  0.97519704  0.88962171  1
  O  O710  1  0.33550959  0.77240576  0.88862539  1
  O  O711  1  0.33348134  0.48693862  0.38026040  1
  O  O712  1  0.33623051  0.48015822  0.88617789  1
  O  O713  1  0.39854367  0.87306848  0.61545843  1
  O  O714  1  0.16301665  0.02243269  0.13894299  1
  O  O715  1  0.16211124  0.02276682  0.63923103  1
  O  O716  1  0.15870537  0.52337775  0.13763822  1
  O  O717  1  0.15946046  0.52354540  0.63827128  1
  O  O718  1  0.66840596  0.22327306  0.11184391  1
  O  O719  1  0.67359879  0.21848945  0.60562627  1
  O  O720  1  0.83639319  0.47690026  0.36253715  1
  O  O721  1  0.83755005  0.47770122  0.86159279  1
  O  O722  1  0.83957017  0.97651748  0.36342371  1
  O  O723  1  0.84003050  0.97716492  0.86307994  1
  O  O724  1  0.89975024  0.37531668  0.13402237  1
  O  O725  1  0.66429755  0.22529107  0.11217147  1
  O  O726  1  0.90025044  0.37543553  0.13334818  1
  O  O727  1  0.90157949  0.37528855  0.63328697  1
  O  O728  1  0.66313476  0.72805879  0.11221734  1
  O  O729  1  0.66358116  0.72692638  0.61194782  1
  O  O730  1  0.95449476  0.12421741  0.14525398  1
  O  O731  1  0.95570395  0.12485277  0.64649825  1
  O  O732  1  0.95265072  0.62654575  0.14509883  1
  O  O733  1  0.95292192  0.62562257  0.64547596  1
  O  O734  1  0.45526925  0.12010995  0.09556526  1
  O  O735  1  0.46007542  0.11783810  0.59397237  1
  O  O736  1  0.45623115  0.62640747  0.10305066  1
  O  O737  1  0.45528926  0.62565573  0.60251711  1
  O  O738  1  0.54045317  0.38056569  0.40658522  1
  O  O739  1  0.54449251  0.37804830  0.89543204  1
  O  O740  1  0.60367107  0.11774793  0.88236267  1
  O  O741  1  0.60121523  0.62688869  0.38436561  1
  O  O742  1  0.39824826  0.87230393  0.61535292  1
  O  O743  1  0.16239648  0.02234652  0.13896696  1
  O  O744  1  0.16256472  0.02255751  0.63857590  1
  O  O745  1  0.15789922  0.52322173  0.13715030  1
  O  O746  1  0.15927262  0.52389652  0.63765602  1
  O  O747  1  0.66886111  0.22272943  0.10900567  1
  O  O748  1  0.67281486  0.21583482  0.60186318  1
  O  O749  1  0.66464174  0.72819288  0.11159574  1
  O  O750  1  0.66478133  0.72591171  0.61519958  1
  O  O751  1  0.33011635  0.28512759  0.40098032  1
  O  O752  1  0.54422634  0.87415848  0.89654542  1
  O  O753  1  0.60741518  0.11602856  0.38736434  1
  O  O754  1  0.60372108  0.11790337  0.89125450  1
  O  O755  1  0.60019734  0.62686575  0.38511296  1
  O  O756  1  0.60021749  0.62703417  0.88473878  1
  O  O757  1  0.66283155  0.02016017  0.11861263  1
  O  O758  1  0.66410299  0.01802761  0.61975765  1
  O  O759  1  0.66422579  0.52458309  0.11268885  1
  O  O760  1  0.90166710  0.37569025  0.63464305  1
  O  O761  1  0.90328882  0.87495636  0.13424533  1
  O  O762  1  0.16020440  0.72763571  0.63891979  1
  O  O763  1  0.09833299  0.12430960  0.36535749  1
  O  O764  1  0.10026313  0.12437916  0.86601417  1
  O  O765  1  0.09577858  0.62601237  0.36517620  1
  O  O766  1  0.09671075  0.62504334  0.86575480  1
  O  O767  1  0.83725382  0.27337748  0.35967138  1
  O  O768  1  0.83687094  0.27344304  0.85931755  1
  O  O769  1  0.83922464  0.77264500  0.36081838  1
  O  O770  1  0.83803580  0.77285641  0.86181570  1
  O  O771  1  0.83788913  0.47723320  0.36076917  1
  O  O772  1  0.39962587  0.37658644  0.61845200  1
  O  O773  1  0.39977908  0.87358364  0.11543032  1
  O  O774  1  0.40098412  0.87455466  0.61558251  1
  O  O775  1  0.16170843  0.02257148  0.13926683  1
  O  O776  1  0.16307158  0.02298352  0.63828423  1
  O  O777  1  0.16230079  0.72667593  0.13800860  1
  O  O778  1  0.16187628  0.72734541  0.63816010  1
  O  O779  1  0.09842047  0.12471185  0.36671341  1
  O  O780  1  0.09974953  0.12456453  0.86665182  1
  O  O781  1  0.09804339  0.62514824  0.36639979  1
  O  O782  1  0.09865994  0.62506084  0.86595832  1
  O  O783  1  0.83791640  0.27301243  0.36051877  1
  O  O784  1  0.83788145  0.27273791  0.86079012  1
  O  O785  1  0.83713188  0.77339403  0.36119102  1
  O  O786  1  0.60037383  0.12341381  0.88154805  1
  O  O787  1  0.60022025  0.62641670  0.38457008  1
  O  O788  1  0.59901515  0.62544595  0.88441799  1
  O  O789  1  0.66326082  0.02207380  0.11076855  1
  O  O790  1  0.66302066  0.02098433  0.61827984  1
  O  O791  1  0.66370925  0.52313657  0.11153377  1
  O  O792  1  0.66472216  0.52452846  0.61273205  1
  O  O793  1  0.16208532  0.22698715  0.13948185  1
  O  O794  1  0.90318379  0.87460088  0.13338693  1
  O  O795  1  0.90280038  0.87381552  0.63405137  1
  O  O796  1  0.04589784  0.37498266  0.35161532  1
  O  O797  1  0.04415510  0.37542604  0.85378170  1
  O  O798  1  0.04690930  0.87434623  0.35367076  1
  O  O799  1  0.04666709  0.87389516  0.85402485  1
  O  O800  1  0.39627853  0.38209679  0.10874556  1
  O  O801  1  0.39258454  0.38397122  0.61263591  1
  O  O802  1  0.39978230  0.87296626  0.11526149  1
  O  O803  1  0.39980238  0.87313466  0.61488787  1
  O  O804  1  0.66911959  0.22257021  0.10820299  1
  O  O805  1  0.67087907  0.21290187  0.59940752  1
  O  O806  1  0.83829161  0.47742790  0.86073457  1
  O  O807  1  0.83785462  0.97698862  0.36218932  1
  O  O808  1  0.83781624  0.97748779  0.86098463  1
  O  O809  1  0.66875386  0.22435555  0.60566830  1
  O  O810  1  0.04538227  0.87499547  0.85375120  1
  O  O811  1  0.39962560  0.37658687  0.11845222  1
  O  O812  1  0.39492963  0.38390631  0.61221071  1
  O  O813  1  0.40098405  0.87455483  0.11558281  1
  O  O814  1  0.33019542  0.27737329  0.89472381  1
  O  O815  1  0.33573279  0.77440717  0.38629586  1
  O  O816  1  0.95446714  0.12469153  0.14627261  1
  O  O817  1  0.95523409  0.12511525  0.64712322  1
  O  O818  1  0.95226917  0.62688469  0.14463632  1
  O  O819  1  0.95221250  0.62529544  0.64565217  1
  O  O820  1  0.45523975  0.12036879  0.09840927  1
  O  O821  1  0.46385233  0.11042285  0.59424356  1
  O  O822  1  0.45663468  0.62700837  0.10297605  1
  O  O823  1  0.45505629  0.62717638  0.60164334  1
  O  O824  1  0.53614745  0.38957773  0.40575734  1
  O  O825  1  0.54475983  0.37963151  0.90159132  1
  O  O826  1  0.33716854  0.47983991  0.88138743  1
  O  O827  1  0.33644209  0.97667989  0.38816517  1
  O  O828  1  0.33577404  0.97541686  0.88731102  1
  O  O829  1  0.54494351  0.87282347  0.39835723  1
  O  O830  1  0.54336495  0.87299128  0.89702493  1
  O  O831  1  0.61155259  0.10338107  0.38807985  1
  O  O832  1  0.60579168  0.11555668  0.88600953  1
  O  O833  1  0.60209343  0.62876257  0.38488258  1
  O  O834  1  0.59970186  0.62695315  0.88307217  1
  O  O835  1  0.66334773  0.01973401  0.11644227  1
  O  O836  1  0.67163600  0.00514009  0.62766140  1
  O  O837  1  0.66478166  0.52480346  0.11037909  1
  O  O838  1  0.66333826  0.52219135  0.61104527  1
  O  O839  1  0.90389870  0.87320102  0.63412198  1
  O  O840  1  0.04554044  0.37506105  0.35166950  1
  O  O841  1  0.04452642  0.37538589  0.85404467  1
  O  O842  1  0.04747048  0.87430447  0.35388780  1
  O  O843  1  0.04722915  0.87346356  0.85442540  1
  O  O844  1  0.39513949  0.38368506  0.11096543  1
  O  O845  1  0.38840073  0.39045188  0.61062732  1
  O  O846  1  0.40020621  0.87314628  0.11569742  1
  O  O847  1  0.39918541  0.87207985  0.61476961  1
  O  O848  1  0.45537341  0.62753826  0.60307473  1
  O  O849  1  0.53992436  0.38216240  0.40602859  1
  O  O850  1  0.54473047  0.37989009  0.90443520  1
  O  O851  1  0.54471055  0.87434416  0.39748386  1
  O  O852  1  0.54376867  0.87359235  0.89694997  1
  O  O853  1  0.61159870  0.10954785  0.38937288  1
  O  O854  1  0.60485973  0.11631510  0.88903485  1
  O  O855  1  0.60081422  0.62792032  0.38523091  1
  O  O856  1  0.59979298  0.62685414  0.88430302  1
  O  O857  1  0.66307840  0.01976007  0.11781769  1
  O  O858  1  0.95454557  0.12451914  0.14532169  1
  O  O859  1  0.16240779  0.22619836  0.13963847  1
  O  O860  1  0.16429817  0.22576811  0.63878859  1
  O  O861  1  0.16186225  0.72686364  0.13788458  1
  O  O862  1  0.15968605  0.72787833  0.63935836  1
  O  O863  1  0.09875578  0.12432401  0.36575361  1
  O  O864  1  0.10039800  0.12436240  0.86631426  1
  O  O865  1  0.09474796  0.62682437  0.36520282  1
  O  O866  1  0.09628715  0.62505404  0.86608995  1
  O  O867  1  0.83630334  0.27385470  0.36059412  1
  O  O868  1  0.83737045  0.27374359  0.85981938  1
  O  O869  1  0.66434311  0.72813173  0.11213440  1
  O  O870  1  0.66467470  0.72655503  0.61465625  1
  O  O871  1  0.33075117  0.28216597  0.39954990  1
  O  O872  1  0.83800971  0.27370120  0.86160828  1
  O  O873  1  0.83897270  0.77243935  0.36156735  1
  O  O874  1  0.83797297  0.77322449  0.86235608  1
  O  O875  1  0.83623060  0.47712227  0.36275191  1
  O  O876  1  0.83762132  0.47792413  0.86177331  1
  O  O877  1  0.84033454  0.97619495  0.36315772  1
  O  O878  1  0.84152932  0.97693651  0.86360634  1
  O  O879  1  0.16237932  0.02207610  0.13822811  1
  O  O880  1  0.16376991  0.02287744  0.63724905  1
  O  O881  1  0.15847193  0.52306381  0.13639396  1
  O  O882  1  0.15966619  0.52380521  0.63684270  1
  O  O883  1  0.66980413  0.22262688  0.10527672  1
  O  O884  1  0.66924912  0.21783405  0.60044974  1
  O  O885  1  0.66449002  0.72759438  0.11137538  1
  O  O886  1  0.66426680  0.72559279  0.61370428  1
  O  O887  1  0.32640095  0.28151049  0.39437306  1
  O  O888  1  0.33159378  0.27672686  0.88815651  1
  O  O889  1  0.45532369  0.62548410  0.60415789  1
  O  O890  1  0.54436259  0.37568619  0.39586018  1
  O  O891  1  0.54579666  0.37919488  0.90453273  1
  O  O892  1  0.54430272  0.87469462  0.39585921  1
  O  O893  1  0.54467591  0.87451583  0.89584306  1
  O  O894  1  0.60037387  0.12341356  0.38154799  1
  O  O895  1  0.60506976  0.11609347  0.88778933  1
  O  O896  1  0.59901517  0.62544555  0.38441752  1
  O  O897  1  0.60022019  0.62641708  0.88457013  1
  O  O898  1  0.66302043  0.02098426  0.11828004  1
  O  O899  1  0.54466406  0.37980628  0.90270631  1
  O  O900  1  0.54493627  0.87379065  0.39809748  1
  O  O901  1  0.54350276  0.87321393  0.89717475  1
  O  O902  1  0.61132383  0.10628625  0.39022712  1
  O  O903  1  0.45550752  0.62551958  0.60278334  1
  O  O904  1  0.54333191  0.38022998  0.40398339  1
  O  O905  1  0.54422647  0.37553149  0.89008547  1
  O  O906  1  0.54444604  0.87299747  0.39616476  1
  O  O907  1  0.54482930  0.87235200  0.39780353  1
  O  O908  1  0.54361232  0.87302232  0.89644512  1
  O  O909  1  0.61135154  0.10330007  0.38466245  1
  O  O910  1  0.60531605  0.11586320  0.88513287  1
  O  O911  1  0.60175157  0.62769612  0.38464759  1
  O  O912  1  0.59964352  0.62685829  0.88298578  1
  O  O913  1  0.66369592  0.01960711  0.11513399  1
  O  O914  1  0.66949351  0.00880654  0.62340987  1
  O  O915  1  0.66465130  0.52455235  0.11023068  1
  O  O916  1  0.66334208  0.52178625  0.61082220  1
  O  O917  1  0.33521839  0.77408858  0.38480076  1
  O  O918  1  0.33535776  0.77180743  0.88840453  1
  O  O919  1  0.33068509  0.49217524  0.37354367  1
  O  O920  1  0.33690840  0.48024014  0.88273779  1
  O  O921  1  0.33669866  0.97729432  0.38847971  1
  O  O922  1  0.33556110  0.97535525  0.88874902  1
  O  O923  1  0.95453611  0.12446171  0.14568867  1
  O  O924  1  0.95550471  0.12504410  0.64676777  1
  O  O925  1  0.95233586  0.62678618  0.14471379  1
  O  O926  1  0.95258658  0.62528432  0.64543516  1
  O  O927  1  0.66623112  0.01317898  0.62400235  1
  O  O928  1  0.66417100  0.52455733  0.11213485  1
  O  O929  1  0.66323617  0.52299475  0.61166726  1
  O  O930  1  0.16312940  0.22655720  0.14068315  1
  O  O931  1  0.16274675  0.22662275  0.64032861  1
  O  O932  1  0.16196480  0.72714352  0.13818488  1
  O  O933  1  0.16077560  0.72735489  0.63918242  1
  O  O934  1  0.09875628  0.12428186  0.36657733  1
  O  O935  1  0.09994585  0.12450971  0.86727700  1
  O  O936  1  0.09507334  0.62717886  0.36565768  1
  O  O937  1  0.66420021  0.52384670  0.11010830  1
  O  O938  1  0.66327722  0.52191884  0.61134634  1
  O  O939  1  0.16199150  0.22629874  0.13839245  1
  O  O940  1  0.16376178  0.22664298  0.63819336  1
  O  O941  1  0.16202792  0.72677538  0.13764456  1
  O  O942  1  0.16102786  0.72756043  0.63843339  1
  O  O943  1  0.09819714  0.12445162  0.36544319  1
  O  O944  1  0.10024969  0.12468418  0.86597769  1
  O  O945  1  0.09708257  0.62539605  0.36546214  1
  O  O946  1  0.09752468  0.62490658  0.86544681  1
  O  O947  1  0.66364832  0.52300246  0.61201678  1
  O  O948  1  0.16235749  0.22655125  0.13817511  1
  O  O949  1  0.16279268  0.22717446  0.63814679  1
  O  O950  1  0.15951512  0.52405375  0.63725185  1
  O  O951  1  0.33570233  0.27470878  0.38782848  1
  O  O952  1  0.33124539  0.27564448  0.89433212  1
  O  O953  1  0.33686432  0.77194152  0.38778287  1
  O  O954  1  0.33641834  0.77307398  0.88805207  1
  O  O955  1  0.33697890  0.47901577  0.38172018  1
  O  O956  1  0.33571144  0.77307001  0.88834781  1
  O  O957  1  0.33541486  0.48291770  0.38230080  1
  O  O958  1  0.33636166  0.47964054  0.88698977  1
  O  O959  1  0.83713105  0.77339502  0.86119116  1
  O  O960  1  0.83693035  0.47701713  0.36171653  1
  O  O961  1  0.33629018  0.97686403  0.88846677  1
  O  O962  1  0.95497333  0.12466555  0.14725210  1
  O  O963  1  0.95397430  0.12501767  0.64712537  1
  O  O964  1  0.95473869  0.62520592  0.14630049  1
  O  O965  1  0.95461858  0.62500468  0.64624891  1
  O  O966  1  0.45563699  0.12431418  0.10414027  1
  O  O967  1  0.45420340  0.12080493  0.59546840  1
  O  O968  1  0.45569667  0.62530551  0.10414140  1
  O  O969  1  0.39878459  0.87311147  0.61563516  1
  O  O970  1  0.16360249  0.02276952  0.13872263  1
  O  O971  1  0.95541190  0.12470934  0.64663876  1
  O  O972  1  0.95337298  0.62590324  0.14568366  1
  O  O973  1  0.95348139  0.62574404  0.64577338  1
  O  O974  1  0.45496571  0.12025232  0.09457250  1
  O  O975  1  0.45813654  0.12304099  0.59792567  1
  O  O976  1  0.45577333  0.62584161  0.10345506  1
  O  O977  1  0.54462633  0.87246152  0.39692626  1
  O  O978  1  0.54390569  0.87313467  0.89595569  1
  O  O979  1  0.60985921  0.10607627  0.38279825  1
  O  O980  1  0.60494528  0.11614661  0.88355612  1
  O  O981  1  0.60145595  0.62693167  0.38454211  1
  O  O982  1  0.59936474  0.62653716  0.88320435  1
  O  O983  1  0.66376907  0.01984172  0.11382194  1
  O  O984  1  0.66651840  0.01306152  0.61973921  1
  O  O985  1  0.59902151  0.62584679  0.88371473  1
  O  O986  1  0.66363818  0.02035962  0.11301023  1
  O  O987  1  0.66458488  0.01708241  0.61769881  1
  O  O988  1  0.66357414  0.52289087  0.11016948  1
  O  O989  1  0.39420767  0.38444354  0.11399078  1
  O  O990  1  0.38844606  0.39661883  0.61192020  1
  O  O991  1  0.40029772  0.87304721  0.11692833  1
  O  O992  1  0.39790645  0.87123755  0.61511793  1
  O  O993  1  0.16224977  0.02224503  0.13873227  1
  O  O994  1  0.16285291  0.02240743  0.63798282  1
  O  O995  1  0.15734182  0.52303776  0.13670923  1
  O  O996  1  0.04773176  0.87311479  0.85536342  1
