# generated using pymatgen
data_Li135Fe144P144O575
_symmetry_space_group_name_H-M   'P 1'
_cell_length_a   10.44138714
_cell_length_b   12.14559294
_cell_length_c   9.53207072
_cell_angle_alpha   89.99776343
_cell_angle_beta   90.00002074
_cell_angle_gamma   89.99918632
_symmetry_Int_Tables_number   1
_chemical_formula_structural   Li135Fe144P144O575
_chemical_formula_sum   'Li135 Fe144 P144 O575'
_cell_volume   1208.82706641
_cell_formula_units_Z   1
loop_
 _symmetry_equiv_pos_site_id
 _symmetry_equiv_pos_as_xyz
  1  'x, y, z'
loop_
 _atom_site_type_symbol
 _atom_site_label
 _atom_site_symmetry_multiplicity
 _atom_site_fract_x
 _atom_site_fract_y
 _atom_site_fract_z
 _atom_site_occupancy
  Li  Li0  1  -0.00099311  0.49938602  0.50103176  1
  Li  Li1  1  0.49911728  0.25092626  0.24670235  1
  Li  Li2  1  0.50088283  0.74907380  0.25329786  1
  Li  Li3  1  0.00011035  0.00019640  0.50028107  1
  Li  Li4  1  -0.00011048  0.49980358  -0.00028079  1
  Li  Li5  1  0.00047639  0.00097279  -0.00066208  1
  Li  Li6  1  -0.00047634  0.49902712  0.50066233  1
  Li  Li7  1  0.49999996  0.25000010  0.25000017  1
  Li  Li8  1  0.49999993  0.74999997  0.25000011  1
  Li  Li9  1  0.50000015  0.75000013  0.75000012  1
  Li  Li10  1  0.50088555  0.00092814  0.25330034  1
  Li  Li11  1  0.50009074  0.01185387  0.75580100  1
  Li  Li12  1  0.49911469  0.49907200  0.24669974  1
  Li  Li13  1  0.49990909  0.48814631  0.74419908  1
  Li  Li14  1  0.00099439  0.24938338  -0.00103498  1
  Li  Li15  1  -0.00099454  0.25061656  0.50103509  1
  Li  Li16  1  0.00013900  0.74980661  -0.00049340  1
  Li  Li17  1  -0.00013889  0.75019330  0.50049320  1
  Li  Li18  1  0.00055375  0.00072180  -0.00066076  1
  Li  Li19  1  0.50008513  0.73815142  0.75579242  1
  Li  Li20  1  0.50000005  0.00000000  0.25000000  1
  Li  Li21  1  0.50000000  0.00000012  0.75000022  1
  Li  Li22  1  0.50000002  0.49999983  0.24999996  1
  Li  Li23  1  0.49991481  0.26184876  0.74420750  1
  Li  Li24  1  -0.00008853  -0.00004600  0.50054926  1
  Li  Li25  1  -0.00002993  0.50032173  -0.00097459  1
  Li  Li26  1  -0.00018889  0.49884341  0.50078610  1
  Li  Li27  1  0.49980810  0.24904427  0.24901923  1
  Li  Li28  1  0.49973793  0.74985132  0.25032010  1
  Li  Li29  1  -0.00011021  0.25019583  -0.00028067  1
  Li  Li30  1  -0.00047880  0.25097608  0.50066546  1
  Li  Li31  1  0.00047882  0.74902393  -0.00066524  1
  Li  Li32  1  0.00011034  0.74980440  0.50028075  1
  Li  Li33  1  0.49992448  0.00018633  0.25084968  1
  Li  Li34  1  0.49932337  0.00727035  0.75394638  1
  Li  Li35  1  0.49957020  0.50125767  0.24848104  1
  Li  Li36  1  0.53056593  0.31493797  0.72229239  1
  Li  Li37  1  0.00068852  0.24936022  -0.00146342  1
  Li  Li38  1  0.00057262  0.25118698  0.50092427  1
  Li  Li39  1  0.49971524  0.74508538  0.75283771  1
  Li  Li40  1  0.50085648  0.00057580  0.25316310  1
  Li  Li41  1  0.50051714  0.01102507  0.75610825  1
  Li  Li42  1  0.49926519  0.49933781  0.24769322  1
  Li  Li43  1  0.51557729  0.46290753  0.73250006  1
  Li  Li44  1  0.00114586  0.24892142  -0.00186587  1
  Li  Li45  1  -0.00033385  0.25059768  0.50100857  1
  Li  Li46  1  0.00087789  0.74992587  -0.00043699  1
  Li  Li47  1  -0.00033043  0.75033124  0.50110715  1
  Li  Li48  1  0.00107898  0.25093159  0.50083135  1
  Li  Li49  1  0.00062035  0.74961856  -0.00071258  1
  Li  Li50  1  -0.00059175  0.75022690  0.50111132  1
  Li  Li51  1  0.00090487  -0.00004289  -0.00036695  1
  Li  Li52  1  -0.00044452  -0.00033544  0.50129895  1
  Li  Li53  1  0.00142778  0.50118709  -0.00217198  1
  Li  Li54  1  0.00059671  0.49947664  0.50082436  1
  Li  Li55  1  0.49928218  0.25021495  0.24794658  1
  Li  Li56  1  0.50098710  0.74932432  0.25315794  1
  Li  Li57  1  0.50034030  0.73957594  0.75573832  1
  Li  Li58  1  0.00099324  0.50061415  -0.00103172  1
  Li  Li59  1  0.00146770  0.50120370  -0.00217182  1
  Li  Li60  1  0.00134695  0.49948866  0.50057751  1
  Li  Li61  1  0.49926040  0.24979556  0.24786567  1
  Li  Li62  1  0.50088089  0.74911972  0.25304328  1
  Li  Li63  1  0.50008333  0.73983045  0.75557532  1
  Li  Li64  1  0.50020605  0.00030792  0.25163866  1
  Li  Li65  1  0.49938771  0.00902976  0.75511746  1
  Li  Li66  1  0.49936189  0.50101008  0.24805805  1
  Li  Li67  1  0.54481458  0.34494570  0.71321864  1
  Li  Li68  1  0.00131320  0.24912960  -0.00174343  1
  Li  Li69  1  0.50085439  0.74942623  0.25315840  1
  Li  Li70  1  0.50051590  0.73898058  0.75609715  1
  Li  Li71  1  0.50020300  0.74969460  0.25163473  1
  Li  Li72  1  0.49938061  0.74097737  0.75510784  1
  Li  Li73  1  0.50088553  0.00088370  0.25304946  1
  Li  Li74  1  0.50009097  0.01017566  0.75558651  1
  Li  Li75  1  0.49925805  0.50020394  0.24786597  1
  Li  Li76  1  0.54481216  0.40504823  0.71321646  1
  Li  Li77  1  0.00146932  0.24879133  -0.00217696  1
  Li  Li78  1  0.00134567  0.25051377  0.50058027  1
  Li  Li79  1  0.00086134  0.75006190  -0.00039387  1
  Li  Li80  1  -0.00058134  0.75032175  0.50143814  1
  Li  Li81  1  0.49973728  0.00014773  0.25031812  1
  Li  Li82  1  0.49971835  0.00491660  0.75284020  1
  Li  Li83  1  0.49980694  0.50095487  0.24901900  1
  Li  Li84  1  0.51558150  0.28708872  0.73251207  1
  Li  Li85  1  -0.00002972  0.24967589  -0.00097601  1
  Li  Li86  1  -0.00019243  0.25116080  0.50079116  1
  Li  Li87  1  0.00055611  0.74927561  -0.00066539  1
  Li  Li88  1  -0.00008896  0.75004725  0.50055048  1
  Li  Li89  1  0.00013957  0.00019251  -0.00049272  1
  Li  Li90  1  -0.00013973  -0.00019241  0.50049268  1
  Li  Li91  1  0.55358253  0.37499468  0.70734513  1
  Li  Li92  1  0.00156352  0.24889049  -0.00202175  1
  Li  Li93  1  0.00160718  0.25065686  0.50069397  1
  Li  Li94  1  0.00080354  0.74986758  -0.00052811  1
  Li  Li95  1  -0.00055748  0.75025603  0.50130235  1
  Li  Li96  1  0.00085776  -0.00006567  -0.00039044  1
  Li  Li97  1  -0.00058305  -0.00031986  0.50143696  1
  Li  Li98  1  0.00054871  0.74949586  -0.00070208  1
  Li  Li99  1  -0.00041071  0.75017419  0.50081862  1
  Li  Li100  1  0.00087614  0.00007238  -0.00043512  1
  Li  Li101  1  -0.00032918  -0.00032955  0.50110469  1
  Li  Li102  1  0.00114429  0.50107521  -0.00186145  1
  Li  Li103  1  -0.00032738  0.49940699  0.50100286  1
  Li  Li104  1  0.49926803  0.25065934  0.24769789  1
  Li  Li105  1  0.49992351  0.74981277  0.25084996  1
  Li  Li106  1  0.49931771  0.74273373  0.75393925  1
  Li  Li107  1  0.50099053  0.00067845  0.25316313  1
  Li  Li108  1  0.50034537  0.01043154  0.75575115  1
  Li  Li109  1  0.49928052  0.49978448  0.24794615  1
  Li  Li110  1  0.00061788  0.00037779  -0.00070596  1
  Li  Li111  1  -0.00059386  -0.00022642  0.50111194  1
  Li  Li112  1  0.00131040  0.50086469  -0.00173838  1
  Li  Li113  1  0.00108167  0.49907166  0.50082845  1
  Li  Li114  1  0.49936281  0.24899039  0.24805653  1
  Li  Li115  1  0.00079944  0.00012832  -0.00052274  1
  Li  Li116  1  -0.00055984  -0.00025511  0.50130279  1
  Li  Li117  1  0.00156124  0.50110371  -0.00201627  1
  Li  Li118  1  0.00160916  0.49934485  0.50069157  1
  Li  Li119  1  0.49920633  0.24944676  0.24795274  1
  Li  Li120  1  0.50061315  0.74923950  0.25263089  1
  Li  Li121  1  0.49963848  0.74001330  0.75549142  1
  Li  Li122  1  0.50061996  0.00076666  0.25263890  1
  Li  Li123  1  0.49964581  0.00999241  0.75549977  1
  Li  Li124  1  0.49920598  0.50055336  0.24795343  1
  Li  Li125  1  0.00054639  0.00050079  -0.00069643  1
  Li  Li126  1  0.53056373  0.43505627  0.72228656  1
  Li  Li127  1  0.00142974  0.24880876  -0.00217632  1
  Li  Li128  1  0.00059294  0.25052642  0.50082882  1
  Li  Li129  1  0.00090739  0.75004095  -0.00036926  1
  Li  Li130  1  -0.00044326  0.75033799  0.50130110  1
  Li  Li131  1  -0.00041157  -0.00017336  0.50081841  1
  Li  Li132  1  0.00068814  0.50063560  -0.00145925  1
  Li  Li133  1  0.00057586  0.49881632  0.50092039  1
  Li  Li134  1  0.49957067  0.24874190  0.24848103  1
  Fe  Fe135  1  0.27991486  0.62432573  0.48733607  1
  Fe  Fe136  1  0.28136754  0.62372429  0.98648833  1
  Fe  Fe137  1  0.21989424  0.37526961  0.23624286  1
  Fe  Fe138  1  0.22344039  0.37410567  0.74037706  1
  Fe  Fe139  1  0.21987270  0.87488501  0.23655384  1
  Fe  Fe140  1  0.77655976  0.12589444  0.75962303  1
  Fe  Fe141  1  0.78012766  0.62511498  0.26344696  1
  Fe  Fe142  1  0.78023296  0.62457840  0.76284832  1
  Fe  Fe143  1  0.78010582  0.12473033  0.26375701  1
  Fe  Fe144  1  0.71831557  0.37359663  0.01025676  1
  Fe  Fe145  1  0.28198574  0.62295724  0.98534924  1
  Fe  Fe146  1  0.21951952  0.37493176  0.23442175  1
  Fe  Fe147  1  0.27973038  0.62406447  0.48833568  1
  Fe  Fe148  1  0.28224440  0.62319797  0.98544250  1
  Fe  Fe149  1  0.21930928  0.37487798  0.23365192  1
  Fe  Fe150  1  0.22286653  0.37416468  0.74103016  1
  Fe  Fe151  1  0.22003129  0.87493632  0.23706423  1
  Fe  Fe152  1  0.21997523  0.87488976  0.73755944  1
  Fe  Fe153  1  0.78020544  0.12351586  0.26459833  1
  Fe  Fe154  1  0.77635962  0.12629381  0.76081397  1
  Fe  Fe155  1  0.71777604  0.87506081  0.51614904  1
  Fe  Fe156  1  0.28052307  0.12503690  0.49015248  1
  Fe  Fe157  1  0.28225418  0.12585355  0.98553158  1
  Fe  Fe158  1  0.22300942  0.37389148  0.74049948  1
  Fe  Fe159  1  0.21996846  0.87478358  0.23676611  1
  Fe  Fe160  1  0.22003244  0.87498639  0.73739065  1
  Fe  Fe161  1  0.78020815  0.12345930  0.26442896  1
  Fe  Fe162  1  0.77628170  0.12616819  0.76033572  1
  Fe  Fe163  1  0.78029366  0.62538147  0.26473918  1
  Fe  Fe164  1  0.77888238  0.62480685  0.76291478  1
  Fe  Fe165  1  0.27973008  0.12593459  0.48833609  1
  Fe  Fe166  1  0.28224515  0.12680345  0.98544092  1
  Fe  Fe167  1  0.28052236  0.62496120  0.49015185  1
  Fe  Fe168  1  0.28225358  0.62414708  0.98553418  1
  Fe  Fe169  1  0.21931049  0.37511827  0.23365319  1
  Fe  Fe170  1  0.22286544  0.37583523  0.74103062  1
  Fe  Fe171  1  0.22003060  0.87506279  0.23706561  1
  Fe  Fe172  1  0.21997495  0.87510952  0.73755742  1
  Fe  Fe173  1  0.78030251  0.12483208  0.26432877  1
  Fe  Fe174  1  0.78007269  0.62579570  0.26518103  1
  Fe  Fe175  1  0.77816954  0.62470349  0.76304267  1
  Fe  Fe176  1  0.71822644  0.37436504  0.01299330  1
  Fe  Fe177  1  0.72164634  0.37253449  0.50311004  1
  Fe  Fe178  1  0.72007758  0.87503163  0.01407998  1
  Fe  Fe179  1  0.71739253  0.87454505  0.51658294  1
  Fe  Fe180  1  0.28000583  0.12512530  0.48985037  1
  Fe  Fe181  1  0.28229746  0.12610136  0.98551423  1
  Fe  Fe182  1  0.27929516  0.62440423  0.48862312  1
  Fe  Fe183  1  0.28236701  0.62331876  0.98540931  1
  Fe  Fe184  1  0.21989686  0.37473014  0.23624492  1
  Fe  Fe185  1  0.22343881  0.37589124  0.74037592  1
  Fe  Fe186  1  0.21987021  0.87511258  0.23655225  1
  Fe  Fe187  1  0.21976679  0.87457663  0.73715314  1
  Fe  Fe188  1  0.71848578  0.37372470  0.01253553  1
  Fe  Fe189  1  0.72020141  0.37164255  0.50660828  1
  Fe  Fe190  1  0.72016203  0.87502413  0.01384326  1
  Fe  Fe191  1  0.71758090  0.37313049  0.51470733  1
  Fe  Fe192  1  0.72008538  0.87567467  0.01266368  1
  Fe  Fe193  1  0.71863271  0.87627580  0.51351182  1
  Fe  Fe194  1  0.28168417  0.12640352  0.48974351  1
  Fe  Fe195  1  0.28241868  0.12686955  0.98529290  1
  Fe  Fe196  1  0.21976693  0.87542167  0.73715195  1
  Fe  Fe197  1  0.78016039  0.12381624  0.26442872  1
  Fe  Fe198  1  0.77957310  0.12525627  0.76279263  1
  Fe  Fe199  1  0.78015807  0.62618511  0.26442868  1
  Fe  Fe200  1  0.77643505  0.62399179  0.76006827  1
  Fe  Fe201  1  0.71839440  0.37652864  0.01133550  1
  Fe  Fe202  1  0.71858321  0.37817670  0.51083685  1
  Fe  Fe203  1  0.72028937  0.87483785  0.01340087  1
  Fe  Fe204  1  0.71802029  0.87457486  0.51515658  1
  Fe  Fe205  1  0.27989710  0.12632688  0.48774065  1
  Fe  Fe206  1  0.28198673  0.12704505  0.98534865  1
  Fe  Fe207  1  0.28111060  0.62459215  0.48993343  1
  Fe  Fe208  1  0.21936618  0.37493669  0.23280110  1
  Fe  Fe209  1  0.22321360  0.37463695  0.74130714  1
  Fe  Fe210  1  0.22023280  0.87498965  0.23700192  1
  Fe  Fe211  1  0.22003850  0.87496266  0.73776754  1
  Fe  Fe212  1  0.78001577  0.12368102  0.26504338  1
  Fe  Fe213  1  0.77718024  0.12580350  0.76247884  1
  Fe  Fe214  1  0.78001356  0.62632170  0.26504332  1
  Fe  Fe215  1  0.77717982  0.62419996  0.76248011  1
  Fe  Fe216  1  0.71797257  0.37500123  0.01293790  1
  Fe  Fe217  1  0.72263004  0.37499987  0.50019352  1
  Fe  Fe218  1  0.78010286  0.62526972  0.26375554  1
  Fe  Fe219  1  0.77656099  0.62410880  0.75962370  1
  Fe  Fe220  1  0.71831570  0.37640307  0.01025743  1
  Fe  Fe221  1  0.71758186  0.37686952  0.51470500  1
  Fe  Fe222  1  0.72008435  0.87432481  0.01266406  1
  Fe  Fe223  1  0.71863212  0.87372216  0.51351242  1
  Fe  Fe224  1  0.27991598  0.12567536  0.48733636  1
  Fe  Fe225  1  0.28136776  0.12627768  0.98648784  1
  Fe  Fe226  1  0.28168503  0.62359691  0.48974272  1
  Fe  Fe227  1  0.28241819  0.62313035  0.98529519  1
  Fe  Fe228  1  0.77643416  0.12601081  0.76006755  1
  Fe  Fe229  1  0.78030212  0.62517018  0.26432932  1
  Fe  Fe230  1  0.77957388  0.62474748  0.76279478  1
  Fe  Fe231  1  0.71839454  0.37347170  0.01133578  1
  Fe  Fe232  1  0.71858269  0.37182185  0.51083505  1
  Fe  Fe233  1  0.72028988  0.87515965  0.01340222  1
  Fe  Fe234  1  0.71802033  0.87542332  0.51515640  1
  Fe  Fe235  1  0.28111143  0.12540619  0.48993406  1
  Fe  Fe236  1  0.28228116  0.12602787  0.98556822  1
  Fe  Fe237  1  0.27989792  0.62367232  0.48774119  1
  Fe  Fe238  1  0.28228021  0.62397219  0.98557035  1
  Fe  Fe239  1  0.21952152  0.37506532  0.23442513  1
  Fe  Fe240  1  0.22300980  0.37610696  0.74050034  1
  Fe  Fe241  1  0.21996771  0.87521533  0.23676889  1
  Fe  Fe242  1  0.22003278  0.87501653  0.73739368  1
  Fe  Fe243  1  0.78012956  0.12488706  0.26344782  1
  Fe  Fe244  1  0.78023333  0.12542347  0.76284724  1
  Fe  Fe245  1  0.28000566  0.62487386  0.48984995  1
  Fe  Fe246  1  0.28229668  0.62389874  0.98551651  1
  Fe  Fe247  1  0.21936763  0.37505904  0.23280245  1
  Fe  Fe248  1  0.22321415  0.37536448  0.74130872  1
  Fe  Fe249  1  0.22023268  0.87500903  0.23700184  1
  Fe  Fe250  1  0.22003842  0.87503617  0.73776704  1
  Fe  Fe251  1  0.78029353  0.12462033  0.26473698  1
  Fe  Fe252  1  0.77888170  0.12519508  0.76291067  1
  Fe  Fe253  1  0.78020640  0.62654253  0.26442907  1
  Fe  Fe254  1  0.77628267  0.62383490  0.76033853  1
  Fe  Fe255  1  0.71848601  0.37627699  0.01253535  1
  Fe  Fe256  1  0.72020231  0.37835644  0.50660997  1
  Fe  Fe257  1  0.72016199  0.87497432  0.01384107  1
  Fe  Fe258  1  0.71777621  0.87493632  0.51614985  1
  Fe  Fe259  1  0.72006874  0.87499816  0.01427828  1
  Fe  Fe260  1  0.71706695  0.87499874  0.51698429  1
  Fe  Fe261  1  0.27942603  0.12548886  0.48923675  1
  Fe  Fe262  1  0.28237134  0.12642671  0.98543553  1
  Fe  Fe263  1  0.27942671  0.62451014  0.48923538  1
  Fe  Fe264  1  0.28237011  0.62357357  0.98543727  1
  Fe  Fe265  1  0.21947819  0.37499796  0.23241194  1
  Fe  Fe266  1  0.22370690  0.37500033  0.74151227  1
  Fe  Fe267  1  0.22037556  0.87499911  0.23700881  1
  Fe  Fe268  1  0.22012665  0.87499937  0.73780866  1
  Fe  Fe269  1  0.78007357  0.12420546  0.26518020  1
  Fe  Fe270  1  0.77816635  0.12530029  0.76303544  1
  Fe  Fe271  1  0.78020414  0.62648640  0.26459796  1
  Fe  Fe272  1  0.77635821  0.62370913  0.76081296  1
  Fe  Fe273  1  0.71822664  0.37563769  0.01299387  1
  Fe  Fe274  1  0.72164709  0.37746488  0.50311053  1
  Fe  Fe275  1  0.72007760  0.87496736  0.01407976  1
  Fe  Fe276  1  0.71739215  0.87545302  0.51658136  1
  Fe  Fe277  1  0.27929470  0.12559479  0.48862373  1
  Fe  Fe278  1  0.28236797  0.12668109  0.98540637  1
  P  P279  1  0.09424232  0.12479256  0.20872771  1
  P  P280  1  0.09200379  0.12471649  0.70849033  1
  P  P281  1  0.09310784  0.62525905  0.20785584  1
  P  P282  1  0.09314600  0.62507961  0.70779601  1
  P  P283  1  0.40338451  0.37840436  0.45701060  1
  P  P284  1  0.40624675  0.37606800  0.96097713  1
  P  P285  1  0.40465249  0.87647541  0.45793339  1
  P  P286  1  0.40680505  0.87556868  0.95800625  1
  P  P287  1  0.59628212  0.12351142  0.04300825  1
  P  P288  1  0.59211771  0.12696982  0.54177736  1
  P  P289  1  0.59694149  0.62887352  0.04337474  1
  P  P290  1  0.59256829  0.62465740  0.54011082  1
  P  P291  1  0.90637293  0.37486234  0.29100719  1
  P  P292  1  0.90725591  0.37502259  0.79143897  1
  P  P293  1  0.90678256  0.87548256  0.29304235  1
  P  P294  1  0.90667581  0.87456843  0.29348837  1
  P  P295  1  0.90668451  0.87515065  0.79293444  1
  P  P296  1  0.40703448  0.37483695  0.96054412  1
  P  P297  1  0.40479428  0.87365446  0.45794068  1
  P  P298  1  0.40637491  0.87492191  0.95796723  1
  P  P299  1  0.59661555  0.12159553  0.04298934  1
  P  P300  1  0.59296541  0.12516315  0.53945581  1
  P  P301  1  0.59362504  0.62507836  0.54203280  1
  P  P302  1  0.90575762  0.37520729  0.29127258  1
  P  P303  1  0.90799624  0.37528362  0.79151006  1
  P  P304  1  0.90689248  0.87474068  0.29214452  1
  P  P305  1  0.90685403  0.87492059  0.79220437  1
  P  P306  1  0.40469005  0.87392234  0.45801164  1
  P  P307  1  0.40688846  0.87446532  0.95806717  1
  P  P308  1  0.09178836  0.62494845  0.70819380  1
  P  P309  1  0.40125751  0.37499396  0.45352294  1
  P  P310  1  0.40526405  0.37404367  0.96203152  1
  P  P311  1  0.59256839  0.12533841  0.54010957  1
  P  P312  1  0.59628259  0.62648879  0.04300960  1
  P  P313  1  0.59211791  0.62302737  0.54177886  1
  P  P314  1  0.09358912  0.62555836  0.20866315  1
  P  P315  1  0.09162984  0.62535690  0.70851361  1
  P  P316  1  0.40215897  0.37418888  0.45496401  1
  P  P317  1  0.90728490  0.37509957  0.29058089  1
  P  P318  1  0.90680108  0.37489805  0.79132600  1
  P  P319  1  0.59696590  0.12112160  0.04337373  1
  P  P320  1  0.09334032  0.12421995  0.20840338  1
  P  P321  1  0.59520461  0.12365241  0.04205796  1
  P  P322  1  0.59362588  0.12492101  0.54203335  1
  P  P323  1  0.59661547  0.62840390  0.04299040  1
  P  P324  1  0.59296540  0.62483416  0.53945620  1
  P  P325  1  0.90575891  0.37479310  0.29127269  1
  P  P326  1  0.90799662  0.37471608  0.79150895  1
  P  P327  1  0.90689139  0.87526003  0.29214506  1
  P  P328  1  0.90685382  0.87508020  0.79220473  1
  P  P329  1  0.09124178  0.62527562  0.70854817  1
  P  P330  1  0.40125846  0.37500637  0.45352423  1
  P  P331  1  0.40526440  0.37596023  0.96203119  1
  P  P332  1  0.40469075  0.87607611  0.45801210  1
  P  P333  1  0.40688812  0.87553606  0.95806789  1
  P  P334  1  0.59675937  0.12290862  0.04350781  1
  P  P335  1  0.59116475  0.12819468  0.54198653  1
  P  P336  1  0.59696603  0.62887791  0.04337390  1
  P  P337  1  0.09102585  0.12483384  0.70850462  1
  P  P338  1  0.09331725  0.62570346  0.20811974  1
  P  P339  1  0.09134378  0.62505178  0.70831880  1
  P  P340  1  0.40060820  0.37491387  0.45271373  1
  P  P341  1  0.40488973  0.37456649  0.96189944  1
  P  P342  1  0.40489376  0.87443475  0.45837468  1
  P  P343  1  0.40694771  0.87474859  0.95804540  1
  P  P344  1  0.59692739  0.12137836  0.04363144  1
  P  P345  1  0.59106552  0.12823723  0.54159512  1
  P  P346  1  0.59688949  0.62783404  0.04400586  1
  P  P347  1  0.90611840  0.87500015  0.79307212  1
  P  P348  1  0.09331856  0.12429549  0.20811967  1
  P  P349  1  0.09134295  0.12494877  0.70831819  1
  P  P350  1  0.09333870  0.62577961  0.20840371  1
  P  P351  1  0.09102535  0.62516695  0.70850511  1
  P  P352  1  0.40060851  0.37508661  0.45271431  1
  P  P353  1  0.40489036  0.37543666  0.96189898  1
  P  P354  1  0.40489390  0.87556402  0.45837432  1
  P  P355  1  0.40694750  0.87525175  0.95804505  1
  P  P356  1  0.59689084  0.12216580  0.04400493  1
  P  P357  1  0.90680115  0.37510101  0.79132648  1
  P  P358  1  0.90667468  0.87543320  0.29348849  1
  P  P359  1  0.90668465  0.87485114  0.79293398  1
  P  P360  1  0.09351281  0.12463691  0.20778793  1
  P  P361  1  0.09233959  0.12511573  0.70798813  1
  P  P362  1  0.09351192  0.62536224  0.20778920  1
  P  P363  1  0.09234008  0.62488385  0.70798850  1
  P  P364  1  0.40215858  0.37581029  0.45496361  1
  P  P365  1  0.40624643  0.37393576  0.96097835  1
  P  P366  1  0.40465188  0.87352426  0.45793299  1
  P  P367  1  0.40680510  0.87443298  0.95800439  1
  P  P368  1  0.59694008  0.12112612  0.04337507  1
  P  P369  1  0.59200744  0.12645143  0.54068642  1
  P  P370  1  0.59675890  0.62709114  0.04350853  1
  P  P371  1  0.59116385  0.62180388  0.54198681  1
  P  P372  1  0.59200602  0.62354487  0.54068617  1
  P  P373  1  0.90728475  0.37490123  0.29058238  1
  P  P374  1  0.59002031  0.12996640  0.54258763  1
  P  P375  1  0.59692715  0.62862162  0.04363187  1
  P  P376  1  0.59106473  0.62175955  0.54159580  1
  P  P377  1  0.90811462  0.37490622  0.29008819  1
  P  P378  1  0.90663220  0.37505920  0.79121919  1
  P  P379  1  0.90655876  0.87520833  0.29377003  1
  P  P380  1  0.90632162  0.87477738  0.79301967  1
  P  P381  1  0.09347402  0.12443377  0.20797813  1
  P  P382  1  0.09178810  0.12505252  0.70819321  1
  P  P383  1  0.09337180  0.62574948  0.20849393  1
  P  P384  1  0.40492536  0.37500181  0.96150887  1
  P  P385  1  0.40501064  0.87500007  0.45854582  1
  P  P386  1  0.40701139  0.87500007  0.95798757  1
  P  P387  1  0.59684534  0.12170122  0.04402468  1
  P  P388  1  0.58978432  0.13075857  0.54277550  1
  P  P389  1  0.59684439  0.62829830  0.04402463  1
  P  P390  1  0.58978356  0.61923786  0.54277764  1
  P  P391  1  0.90846032  0.37500063  0.28988976  1
  P  P392  1  0.90663897  0.37500015  0.79107001  1
  P  P393  1  0.90654554  0.87500058  0.29389087  1
  P  P394  1  0.59001948  0.62003089  0.54258768  1
  P  P395  1  0.90811442  0.37509473  0.29008695  1
  P  P396  1  0.90663190  0.37494021  0.79121860  1
  P  P397  1  0.90655898  0.87479257  0.29376963  1
  P  P398  1  0.90632217  0.87522420  0.79301922  1
  P  P399  1  0.09331150  0.12422783  0.20828595  1
  P  P400  1  0.09112360  0.12487112  0.70841737  1
  P  P401  1  0.09330968  0.62577157  0.20828635  1
  P  P402  1  0.09112355  0.62512955  0.70841734  1
  P  P403  1  0.40038320  0.37499986  0.45256263  1
  P  P404  1  0.90690314  0.87493167  0.79268970  1
  P  P405  1  0.09310846  0.12473973  0.20785523  1
  P  P406  1  0.09314673  0.12492055  0.70779509  1
  P  P407  1  0.09424144  0.62520639  0.20872806  1
  P  P408  1  0.09200343  0.62528433  0.70849097  1
  P  P409  1  0.40338462  0.37159648  0.45700945  1
  P  P410  1  0.40703469  0.37516602  0.96054388  1
  P  P411  1  0.40479518  0.87634782  0.45794250  1
  P  P412  1  0.40637422  0.87507908  0.95796742  1
  P  P413  1  0.90637287  0.37513820  0.29100711  1
  P  P414  1  0.90725561  0.37497770  0.79143907  1
  P  P415  1  0.90678364  0.87451897  0.29304228  1
  P  P416  1  0.90690418  0.87506958  0.79269059  1
  P  P417  1  0.09337303  0.12424980  0.20849329  1
  P  P418  1  0.09124245  0.12472499  0.70854752  1
  P  P419  1  0.09347289  0.62556513  0.20797892  1
  P  P420  1  0.59520612  0.62634592  0.04205939  1
  P  P421  1  0.09359043  0.12444129  0.20866232  1
  P  P422  1  0.09163045  0.12464409  0.70851462  1
  O  O423  1  0.09953774  0.12456335  0.36993978  1
  O  O424  1  0.09629658  0.12441872  0.86969393  1
  O  O425  1  0.39982790  0.87293694  0.61884625  1
  O  O426  1  0.16449781  0.02370962  0.14005234  1
  O  O427  1  0.16149491  0.02266935  0.64099540  1
  O  O428  1  0.16208734  0.52354558  0.13928666  1
  O  O429  1  0.16212502  0.52324794  0.64000294  1
  O  O430  1  0.90275944  0.87487126  0.13105251  1
  O  O431  1  0.90265506  0.87477169  0.63102352  1
  O  O432  1  0.04449200  0.37598668  0.35075297  1
  O  O433  1  0.04637627  0.37536723  0.85206930  1
  O  O434  1  0.04544096  0.87436621  0.35207121  1
  O  O435  1  0.83739406  0.77348354  0.36216360  1
  O  O436  1  0.83776605  0.77307959  0.86122758  1
  O  O437  1  0.83893570  0.47689463  0.35832815  1
  O  O438  1  0.83683259  0.47652319  0.85937709  1
  O  O439  1  0.83694337  0.97670830  0.36238635  1
  O  O440  1  0.83752320  0.97636581  0.86169242  1
  O  O441  1  0.90209426  0.37466405  0.12929861  1
  O  O442  1  0.90281373  0.37505692  0.62997533  1
  O  O443  1  0.90213312  0.87531400  0.13271311  1
  O  O444  1  0.90007685  0.87527618  0.63169988  1
  O  O445  1  0.33014832  0.27460767  0.89871328  1
  O  O446  1  0.90157967  0.37552000  0.12963466  1
  O  O447  1  0.90315202  0.37505227  0.63025136  1
  O  O448  1  0.90259248  0.87459042  0.13195644  1
  O  O449  1  0.09724076  0.62512851  0.36894796  1
  O  O450  1  0.09734501  0.62522845  0.86897652  1
  O  O451  1  0.83772002  0.27284167  0.35895619  1
  O  O452  1  0.83827610  0.27370617  0.85902162  1
  O  O453  1  0.83668956  0.77328898  0.36001186  1
  O  O454  1  0.66101958  0.52023275  0.60915627  1
  O  O455  1  0.16112562  0.22683255  0.14047323  1
  O  O456  1  0.16105408  0.22642123  0.64111565  1
  O  O457  1  0.16341309  0.72686487  0.13978876  1
  O  O458  1  0.16200397  0.72660086  0.64011489  1
  O  O459  1  0.95550713  0.62599102  0.14924751  1
  O  O460  1  0.95362383  0.62537223  0.64793041  1
  O  O461  1  0.45653083  0.12400396  0.10185418  1
  O  O462  1  0.45520904  0.12471409  0.60162704  1
  O  O463  1  0.45724835  0.62626800  0.10095964  1
  O  O464  1  0.45415062  0.62799409  0.59413289  1
  O  O465  1  0.54275163  0.37373232  0.39904020  1
  O  O466  1  0.54584930  0.37200539  0.90586746  1
  O  O467  1  0.54346891  0.87599616  0.39814586  1
  O  O468  1  0.54479115  0.87528572  0.89837413  1
  O  O469  1  0.33683351  0.77386390  0.89036847  1
  O  O470  1  0.33248720  0.47707762  0.38595357  1
  O  O471  1  0.32969822  0.47545071  0.89908294  1
  O  O472  1  0.33564518  0.97745390  0.38818123  1
  O  O473  1  0.33661067  0.97719360  0.89041773  1
  O  O474  1  0.95460890  0.12400546  0.14895698  1
  O  O475  1  0.90281392  0.37494674  0.62997476  1
  O  O476  1  0.90213335  0.87469421  0.13271269  1
  O  O477  1  0.90007776  0.87472961  0.63169919  1
  O  O478  1  0.04620217  0.37530648  0.35028004  1
  O  O479  1  0.04478589  0.37525186  0.85226316  1
  O  O480  1  0.04531388  0.87467247  0.35314206  1
  O  O481  1  0.04558598  0.87500094  0.85155025  1
  O  O482  1  0.40284414  0.37471544  0.12409046  1
  O  O483  1  0.39140223  0.37602407  0.61253553  1
  O  O484  1  0.40172895  0.87464997  0.11916912  1
  O  O485  1  0.83755062  0.97647699  0.86138549  1
  O  O486  1  0.90157874  0.37448568  0.12963607  1
  O  O487  1  0.90302990  0.37511871  0.63011291  1
  O  O488  1  0.90233794  0.87545325  0.13241767  1
  O  O489  1  0.90128338  0.87544722  0.63167404  1
  O  O490  1  0.33509380  0.97488046  0.38904177  1
  O  O491  1  0.33594142  0.97548160  0.38856247  1
  O  O492  1  0.33683437  0.97614174  0.89036478  1
  O  O493  1  0.95468422  0.12299726  0.14893396  1
  O  O494  1  0.95268747  0.12465786  0.64830302  1
  O  O495  1  0.95460784  0.62599725  0.14895766  1
  O  O496  1  0.95299608  0.62525105  0.64816283  1
  O  O497  1  0.45756609  0.12342172  0.10105492  1
  O  O498  1  0.45309629  0.12071118  0.59455553  1
  O  O499  1  0.45742910  0.62552608  0.10140715  1
  O  O500  1  0.16057929  0.02308670  0.64020141  1
  O  O501  1  0.16102220  0.52362658  0.13974727  1
  O  O502  1  0.16029749  0.52337534  0.64102996  1
  O  O503  1  0.66714024  0.22425139  0.11067784  1
  O  O504  1  0.65529421  0.23492555  0.60925649  1
  O  O505  1  0.66367848  0.73009813  0.11745661  1
  O  O506  1  0.66453092  0.72296133  0.60859344  1
  O  O507  1  0.33296259  0.27283369  0.38372877  1
  O  O508  1  0.33109362  0.27497541  0.89765468  1
  O  O509  1  0.33670239  0.77405043  0.38816781  1
  O  O510  1  0.90128330  0.87455914  0.63167434  1
  O  O511  1  0.04562745  0.37577312  0.35040550  1
  O  O512  1  0.04502490  0.37535600  0.85233662  1
  O  O513  1  0.04539938  0.87448979  0.35297985  1
  O  O514  1  0.04571655  0.87483785  0.85207153  1
  O  O515  1  0.40214935  0.37470687  0.12417444  1
  O  O516  1  0.39204169  0.37691495  0.61328407  1
  O  O517  1  0.40163665  0.87434611  0.11919386  1
  O  O518  1  0.33747313  0.47757001  0.89213260  1
  O  O519  1  0.33429933  0.97480961  0.38987192  1
  O  O520  1  0.83694197  0.97691741  0.36190883  1
  O  O521  1  0.33688882  0.97621662  0.89043661  1
  O  O522  1  0.95484947  0.12319967  0.14926070  1
  O  O523  1  0.95319387  0.12448468  0.64804525  1
  O  O524  1  0.95472970  0.62564138  0.14853714  1
  O  O525  1  0.95364269  0.62531725  0.64783640  1
  O  O526  1  0.45752137  0.12343396  0.10111949  1
  O  O527  1  0.45369606  0.12103494  0.59431795  1
  O  O528  1  0.45712818  0.62557534  0.10137905  1
  O  O529  1  0.45370623  0.62448495  0.59997962  1
  O  O530  1  0.54162436  0.37465924  0.39731327  1
  O  O531  1  0.04620273  0.37468909  0.35027983  1
  O  O532  1  0.04478655  0.37474489  0.85226352  1
  O  O533  1  0.04531399  0.87532419  0.35314208  1
  O  O534  1  0.40284558  0.37528189  0.12409000  1
  O  O535  1  0.39140254  0.37397131  0.61253583  1
  O  O536  1  0.40172835  0.87534343  0.11916898  1
  O  O537  1  0.39767259  0.87562231  0.61898497  1
  O  O538  1  0.16380376  0.02317716  0.13987088  1
  O  O539  1  0.16129242  0.02281934  0.64067521  1
  O  O540  1  0.16230111  0.52368026  0.13893452  1
  O  O541  1  0.16126980  0.52304390  0.64026459  1
  O  O542  1  0.66679377  0.22330186  0.11035381  1
  O  O543  1  0.66859555  0.22473429  0.60235364  1
  O  O544  1  0.66422843  0.72836369  0.11357831  1
  O  O545  1  0.66380367  0.72402950  0.60925744  1
  O  O546  1  0.33293444  0.27372616  0.38757505  1
  O  O547  1  0.32942321  0.27487380  0.89905966  1
  O  O548  1  0.33575729  0.77179899  0.38862502  1
  O  O549  1  0.60640589  0.11572555  0.88438461  1
  O  O550  1  0.59895159  0.62057769  0.38102825  1
  O  O551  1  0.60575546  0.63282847  0.88442443  1
  O  O552  1  0.66368086  0.01989929  0.11745876  1
  O  O553  1  0.66453065  0.02703144  0.60859522  1
  O  O554  1  0.66714109  0.52574551  0.11068116  1
  O  O555  1  0.65529145  0.51506605  0.60925489  1
  O  O556  1  0.16102388  0.22637367  0.13974346  1
  O  O557  1  0.16029763  0.22662648  0.64102779  1
  O  O558  1  0.16380084  0.72682275  0.13986726  1
  O  O559  1  0.33626037  0.77317504  0.38796773  1
  O  O560  1  0.33677643  0.77307608  0.89036724  1
  O  O561  1  0.33296295  0.47717127  0.38372547  1
  O  O562  1  0.33109187  0.47503070  0.89765246  1
  O  O563  1  0.33670358  0.97595346  0.38816713  1
  O  O564  1  0.16057925  0.72691489  0.64019924  1
  O  O565  1  0.09831768  0.12416605  0.36951026  1
  O  O566  1  0.09580802  0.12412990  0.86960358  1
  O  O567  1  0.09831589  0.62582956  0.36951059  1
  O  O568  1  0.09580825  0.62586663  0.86960372  1
  O  O569  1  0.83874261  0.27341537  0.35870182  1
  O  O570  1  0.83645176  0.27350016  0.85902523  1
  O  O571  1  0.83717309  0.77338061  0.36238114  1
  O  O572  1  0.83758068  0.77337612  0.86160770  1
  O  O573  1  0.83874419  0.47658509  0.35870105  1
  O  O574  1  0.16172359  0.52370765  0.64098171  1
  O  O575  1  0.66570128  0.22480326  0.11012298  1
  O  O576  1  0.66360448  0.22675000  0.60943910  1
  O  O577  1  0.66389623  0.72984950  0.11616877  1
  O  O578  1  0.66252797  0.72756303  0.60786467  1
  O  O579  1  0.33610386  0.27015071  0.38383146  1
  O  O580  1  0.33747241  0.27243698  0.89213529  1
  O  O581  1  0.33429846  0.77519717  0.38987705  1
  O  O582  1  0.33639620  0.77325015  0.89056049  1
  O  O583  1  0.83772110  0.47715822  0.35895376  1
  O  O584  1  0.83827624  0.47629278  0.85901784  1
  O  O585  1  0.83668859  0.97671076  0.36001003  1
  O  O586  1  0.83684904  0.97674940  0.85994062  1
  O  O587  1  0.90046256  0.37456859  0.13006083  1
  O  O588  1  0.90370427  0.37442337  0.63030521  1
  O  O589  1  0.90275795  0.87513462  0.13105319  1
  O  O590  1  0.90265386  0.87523295  0.63102417  1
  O  O591  1  0.04449344  0.37400890  0.35075219  1
  O  O592  1  0.04637625  0.37462805  0.85206928  1
  O  O593  1  0.59833164  0.12675148  0.38057371  1
  O  O594  1  0.60330356  0.12149178  0.88253566  1
  O  O595  1  0.90199716  0.87454438  0.63147091  1
  O  O596  1  0.04496015  0.37599111  0.35049772  1
  O  O597  1  0.04555553  0.37547174  0.85223984  1
  O  O598  1  0.04543404  0.87442185  0.35274502  1
  O  O599  1  0.04573512  0.87462382  0.85232181  1
  O  O600  1  0.40183469  0.37543437  0.12314706  1
  O  O601  1  0.39323673  0.37913602  0.61454832  1
  O  O602  1  0.40161366  0.87422748  0.11914498  1
  O  O603  1  0.54551579  0.37581223  0.90644433  1
  O  O604  1  0.54379878  0.87344875  0.39927670  1
  O  O605  1  0.16035511  0.22676525  0.64067991  1
  O  O606  1  0.16419296  0.72673706  0.14011742  1
  O  O607  1  0.16034075  0.72703252  0.64031145  1
  O  O608  1  0.33676090  0.97639364  0.89038818  1
  O  O609  1  0.95465728  0.12315815  0.14888685  1
  O  O610  1  0.95237392  0.12488564  0.64835528  1
  O  O611  1  0.95451615  0.62642408  0.14904049  1
  O  O612  1  0.95256668  0.62513303  0.64826970  1
  O  O613  1  0.45753809  0.12363299  0.10130310  1
  O  O614  1  0.45212630  0.12058612  0.59492664  1
  O  O615  1  0.45747017  0.62568116  0.10159979  1
  O  O616  1  0.45128899  0.62885254  0.59654383  1
  O  O617  1  0.54057836  0.37453638  0.39648116  1
  O  O618  1  0.45129008  0.12114615  0.59654477  1
  O  O619  1  0.45753755  0.62636586  0.10130250  1
  O  O620  1  0.45212571  0.62941445  0.59492623  1
  O  O621  1  0.54057894  0.37546355  0.39648262  1
  O  O622  1  0.54463695  0.37434940  0.90789633  1
  O  O623  1  0.54506721  0.87608733  0.40206092  1
  O  O624  1  0.33688665  0.77379031  0.89044109  1
  O  O625  1  0.33293420  0.47627687  0.38757278  1
  O  O626  1  0.32942187  0.47513306  0.89905633  1
  O  O627  1  0.83645061  0.47649892  0.85902191  1
  O  O628  1  0.83717283  0.97661906  0.36238017  1
  O  O629  1  0.83757942  0.97662306  0.86160489  1
  O  O630  1  0.90216633  0.37500423  0.12922277  1
  O  O631  1  0.90257043  0.37500218  0.62983472  1
  O  O632  1  0.90212841  0.87500437  0.13282523  1
  O  O633  1  0.89932717  0.87500290  0.63169151  1
  O  O634  1  0.04635031  0.37499774  0.35032563  1
  O  O635  1  0.04475902  0.37499816  0.85203547  1
  O  O636  1  0.04531344  0.87499857  0.35324769  1
  O  O637  1  0.33364481  0.47381490  0.38997052  1
  O  O638  1  0.32949934  0.47380349  0.89877556  1
  O  O639  1  0.33595748  0.97837201  0.38920101  1
  O  O640  1  0.33617724  0.97664149  0.89013572  1
  O  O641  1  0.95456024  0.12436905  0.14792788  1
  O  O642  1  0.95461835  0.12423424  0.64743114  1
  O  O643  1  0.09594351  0.62570626  0.86949579  1
  O  O644  1  0.83893404  0.27310570  0.35832862  1
  O  O645  1  0.83683336  0.27347552  0.85938024  1
  O  O646  1  0.83694423  0.77329138  0.36238675  1
  O  O647  1  0.83752358  0.77363545  0.86169463  1
  O  O648  1  0.83794992  0.47618534  0.35928892  1
  O  O649  1  0.83623565  0.47655130  0.85872149  1
  O  O650  1  0.83739361  0.97651588  0.36216174  1
  O  O651  1  0.83776571  0.97692112  0.86122477  1
  O  O652  1  0.90209505  0.37534260  0.12929731  1
  O  O653  1  0.16449714  0.72628914  0.14004903  1
  O  O654  1  0.16149391  0.72733304  0.64099523  1
  O  O655  1  0.16200381  0.02339884  0.64011758  1
  O  O656  1  0.16112399  0.52316833  0.14047579  1
  O  O657  1  0.16105364  0.52358021  0.64111711  1
  O  O658  1  0.66644799  0.22500654  0.11081044  1
  O  O659  1  0.66101930  0.22975953  0.60915558  1
  O  O660  1  0.66387189  0.73044701  0.11671372  1
  O  O661  1  0.66284832  0.72715280  0.60838640  1
  O  O662  1  0.33430915  0.27230368  0.38404651  1
  O  O663  1  0.33596819  0.27418545  0.89311605  1
  O  O664  1  0.33509492  0.77512277  0.38904503  1
  O  O665  1  0.09839267  0.12407320  0.36967729  1
  O  O666  1  0.09594356  0.12398074  0.86971661  1
  O  O667  1  0.09831227  0.62545209  0.36914259  1
  O  O668  1  0.09632536  0.62547906  0.86936043  1
  O  O669  1  0.83877623  0.27280508  0.35841300  1
  O  O670  1  0.66252656  0.02243014  0.60786717  1
  O  O671  1  0.66570128  0.52519072  0.11012804  1
  O  O672  1  0.66360283  0.52324571  0.60944270  1
  O  O673  1  0.16228009  0.22715801  0.14104433  1
  O  O674  1  0.16172383  0.22629426  0.64097924  1
  O  O675  1  0.16331073  0.72671068  0.13998872  1
  O  O676  1  0.16314833  0.72675026  0.64005614  1
  O  O677  1  0.09879014  0.12426060  0.36983295  1
  O  O678  1  0.09607355  0.12409806  0.86970833  1
  O  O679  1  0.09814690  0.62512177  0.36891207  1
  O  O680  1  0.09672294  0.62524205  0.86918007  1
  O  O681  1  0.83820248  0.27276551  0.35877984  1
  O  O682  1  0.83791560  0.27332433  0.85940764  1
  O  O683  1  0.83692217  0.77297800  0.36117612  1
  O  O684  1  0.83740894  0.77342321  0.86085914  1
  O  O685  1  0.04543959  0.87563110  0.35207224  1
  O  O686  1  0.04538228  0.87576589  0.85256838  1
  O  O687  1  0.40155485  0.37371174  0.12275281  1
  O  O688  1  0.39387266  0.36618860  0.61629885  1
  O  O689  1  0.59871140  0.12441436  0.38088782  1
  O  O690  1  0.60017149  0.12294190  0.88115214  1
  O  O691  1  0.83717323  0.27322980  0.85880227  1
  O  O692  1  0.83755197  0.77390517  0.36161454  1
  O  O693  1  0.83800531  0.77317736  0.86059150  1
  O  O694  1  0.83820117  0.47723355  0.35877685  1
  O  O695  1  0.83791542  0.47667461  0.85940515  1
  O  O696  1  0.83692215  0.97702279  0.36117467  1
  O  O697  1  0.83740669  0.97657696  0.86085381  1
  O  O698  1  0.90077299  0.37450629  0.12993580  1
  O  O699  1  0.90315291  0.37495226  0.63025119  1
  O  O700  1  0.90259107  0.87541681  0.13195679  1
  O  O701  1  0.66357404  0.72977888  0.11781403  1
  O  O702  1  0.66609232  0.71904163  0.60928441  1
  O  O703  1  0.33249517  0.27281686  0.38389698  1
  O  O704  1  0.33017145  0.27479132  0.89855321  1
  O  O705  1  0.33684945  0.77363648  0.38796766  1
  O  O706  1  0.33678461  0.77334216  0.89038312  1
  O  O707  1  0.33249647  0.47718769  0.38389455  1
  O  O708  1  0.33016779  0.47521462  0.89855183  1
  O  O709  1  0.33685188  0.97636949  0.38796743  1
  O  O710  1  0.33678593  0.97666306  0.89038303  1
  O  O711  1  0.33661064  0.77281197  0.89041889  1
  O  O712  1  0.33366446  0.47725167  0.38398542  1
  O  O713  1  0.33302930  0.47504457  0.89605959  1
  O  O714  1  0.39811826  0.87344845  0.61873064  1
  O  O715  1  0.16428001  0.02332252  0.14009298  1
  O  O716  1  0.16076304  0.02293055  0.64041902  1
  O  O717  1  0.16189589  0.52374259  0.13918506  1
  O  O718  1  0.16069317  0.52308682  0.64052511  1
  O  O719  1  0.66699609  0.22326826  0.11030542  1
  O  O720  1  0.66576912  0.22695876  0.60394866  1
  O  O721  1  0.83575890  0.47592303  0.36014222  1
  O  O722  1  0.83717252  0.47676936  0.85880000  1
  O  O723  1  0.83755308  0.97609580  0.36161154  1
  O  O724  1  0.83800545  0.97682263  0.86058876  1
  O  O725  1  0.90077179  0.37549957  0.12993575  1
  O  O726  1  0.66635571  0.22381005  0.11002407  1
  O  O727  1  0.90046174  0.37543637  0.13006046  1
  O  O728  1  0.90370353  0.37558104  0.63030627  1
  O  O729  1  0.66404837  0.72836477  0.11079843  1
  O  O730  1  0.66382139  0.72663721  0.60986215  1
  O  O731  1  0.95299583  0.12475272  0.64816241  1
  O  O732  1  0.95468326  0.62700725  0.14893370  1
  O  O733  1  0.95268666  0.62534641  0.64830394  1
  O  O734  1  0.45742957  0.12447292  0.10140700  1
  O  O735  1  0.45250704  0.12362368  0.59793003  1
  O  O736  1  0.45756632  0.62657657  0.10105586  1
  O  O737  1  0.45309419  0.62928702  0.59455306  1
  O  O738  1  0.54098557  0.37573912  0.39651613  1
  O  O739  1  0.54489248  0.37451630  0.90782692  1
  O  O740  1  0.54426920  0.87652840  0.40042162  1
  O  O741  1  0.59885483  0.62607069  0.37792311  1
  O  O742  1  0.60651755  0.63444073  0.88410694  1
  O  O743  1  0.39767188  0.87436896  0.61898503  1
  O  O744  1  0.16419509  0.02326302  0.14012077  1
  O  O745  1  0.16034194  0.02296906  0.64031446  1
  O  O746  1  0.16138993  0.52371499  0.13937485  1
  O  O747  1  0.16035641  0.52323582  0.64068329  1
  O  O748  1  0.66709461  0.22357036  0.11033893  1
  O  O749  1  0.66123451  0.23056506  0.60663609  1
  O  O750  1  0.66369988  0.72937962  0.11736355  1
  O  O751  1  0.66588789  0.71966087  0.60930752  1
  O  O752  1  0.33237641  0.27276443  0.38473231  1
  O  O753  1  0.54521225  0.87394731  0.89857985  1
  O  O754  1  0.59885316  0.12393221  0.37792199  1
  O  O755  1  0.60651602  0.11556666  0.88410786  1
  O  O756  1  0.59833063  0.62325485  0.38057540  1
  O  O757  1  0.60330577  0.62851637  0.88253784  1
  O  O758  1  0.66387183  0.01954886  0.11671575  1
  O  O759  1  0.66284941  0.02283885  0.60838420  1
  O  O760  1  0.66644934  0.52499044  0.11081488  1
  O  O761  1  0.90302967  0.37488467  0.63011225  1
  O  O762  1  0.90233931  0.87455457  0.13241755  1
  O  O763  1  0.09831371  0.12454219  0.36914175  1
  O  O764  1  0.09632510  0.12451762  0.86935964  1
  O  O765  1  0.09839128  0.62592085  0.36967840  1
  O  O766  1  0.09594368  0.62601474  0.86971723  1
  O  O767  1  0.83667004  0.27415921  0.35988586  1
  O  O768  1  0.83649773  0.27337277  0.85863692  1
  O  O769  1  0.83752636  0.77374550  0.36199241  1
  O  O770  1  0.83790302  0.77312458  0.86090468  1
  O  O771  1  0.83877719  0.47719568  0.35841158  1
  O  O772  1  0.83728696  0.47663281  0.85946723  1
  O  O773  1  0.40128826  0.87558620  0.11911299  1
  O  O774  1  0.39982843  0.87705828  0.61884829  1
  O  O775  1  0.16331160  0.02328893  0.13999077  1
  O  O776  1  0.16315045  0.02325095  0.64005985  1
  O  O777  1  0.16227922  0.52284130  0.14104686  1
  O  O778  1  0.16128984  0.72718279  0.64067111  1
  O  O779  1  0.09724185  0.12486516  0.36894707  1
  O  O780  1  0.09734617  0.12476731  0.86897569  1
  O  O781  1  0.09953728  0.62543097  0.36994000  1
  O  O782  1  0.09629568  0.62557685  0.86969501  1
  O  O783  1  0.83550285  0.27371009  0.35995042  1
  O  O784  1  0.83850634  0.27266721  0.85900452  1
  O  O785  1  0.83791289  0.77354539  0.36071691  1
  O  O786  1  0.83787711  0.77324733  0.86000195  1
  O  O787  1  0.59844527  0.62628843  0.37724739  1
  O  O788  1  0.60612657  0.63381073  0.88370093  1
  O  O789  1  0.66404264  0.02162770  0.11079840  1
  O  O790  1  0.66382314  0.02335839  0.60986370  1
  O  O791  1  0.66635520  0.52618575  0.11002964  1
  O  O792  1  0.67050106  0.52619711  0.60122477  1
  O  O793  1  0.16208695  0.22645459  0.13928339  1
  O  O794  1  0.16212413  0.22675370  0.63999889  1
  O  O795  1  0.90199679  0.87545982  0.63146979  1
  O  O796  1  0.04496032  0.37400514  0.35049797  1
  O  O797  1  0.04555597  0.37452401  0.85223969  1
  O  O798  1  0.04543360  0.87557517  0.35274489  1
  O  O799  1  0.04573396  0.87537345  0.85232241  1
  O  O800  1  0.40183510  0.37456256  0.12314572  1
  O  O801  1  0.39323702  0.37085836  0.61454869  1
  O  O802  1  0.40161408  0.87576784  0.11914696  1
  O  O803  1  0.39873591  0.87713581  0.61871656  1
  O  O804  1  0.16341442  0.02313509  0.13979064  1
  O  O805  1  0.66716324  0.22390580  0.11048188  1
  O  O806  1  0.65452227  0.23576706  0.60898419  1
  O  O807  1  0.83850524  0.47733102  0.85900433  1
  O  O808  1  0.83791322  0.97645446  0.36071351  1
  O  O809  1  0.83787473  0.97675215  0.85999669  1
  O  O810  1  0.67050136  0.22379668  0.60122200  1
  O  O811  1  0.04538254  0.87423171  0.85256804  1
  O  O812  1  0.40155413  0.37628456  0.12275244  1
  O  O813  1  0.39387382  0.38380644  0.61629987  1
  O  O814  1  0.40128788  0.87440975  0.11911268  1
  O  O815  1  0.32970034  0.27455579  0.89908536  1
  O  O816  1  0.33564480  0.77254851  0.38818272  1
  O  O817  1  0.95457403  0.12333198  0.14901817  1
  O  O818  1  0.95238226  0.12495030  0.64835526  1
  O  O819  1  0.95457222  0.62667159  0.14901787  1
  O  O820  1  0.95238280  0.62505400  0.64835452  1
  O  O821  1  0.45747114  0.12394174  0.10170606  1
  O  O822  1  0.45091613  0.12021012  0.59560287  1
  O  O823  1  0.45747057  0.62605723  0.10170616  1
  O  O824  1  0.45091525  0.62979095  0.59560298  1
  O  O825  1  0.54032100  0.37499874  0.39618332  1
  O  O826  1  0.54448440  0.37500343  0.90713394  1
  O  O827  1  0.33575757  0.97820443  0.38862251  1
  O  O828  1  0.33643892  0.97716760  0.89033308  1
  O  O829  1  0.95473086  0.12436220  0.14853556  1
  O  O830  1  0.54556031  0.87499934  0.40291165  1
  O  O831  1  0.54549403  0.87500019  0.89903084  1
  O  O832  1  0.59909584  0.12933583  0.38096136  1
  O  O833  1  0.60608320  0.11606954  0.88469999  1
  O  O834  1  0.59909678  0.62066623  0.38096335  1
  O  O835  1  0.60608210  0.63393692  0.88470002  1
  O  O836  1  0.66357678  0.02021788  0.11781736  1
  O  O837  1  0.66609147  0.03095124  0.60928642  1
  O  O838  1  0.66716432  0.52609129  0.11048553  1
  O  O839  1  0.65451928  0.51422471  0.60898908  1
  O  O840  1  0.04562802  0.37422285  0.35040536  1
  O  O841  1  0.04502492  0.37464033  0.85233758  1
  O  O842  1  0.04539878  0.87550709  0.35297960  1
  O  O843  1  0.04571621  0.87515923  0.85207200  1
  O  O844  1  0.40215014  0.37529013  0.12417443  1
  O  O845  1  0.39204137  0.37307967  0.61328535  1
  O  O846  1  0.40163680  0.87564918  0.11919469  1
  O  O847  1  0.39811950  0.87654354  0.61873118  1
  O  O848  1  0.16354345  0.02310162  0.13973023  1
  O  O849  1  0.45250651  0.62637480  0.59793160  1
  O  O850  1  0.54098451  0.37426146  0.39651440  1
  O  O851  1  0.54489237  0.37548808  0.90782788  1
  O  O852  1  0.54426862  0.87347052  0.40042213  1
  O  O853  1  0.54532904  0.87408683  0.89885246  1
  O  O854  1  0.59896838  0.12518555  0.37854810  1
  O  O855  1  0.60656513  0.11546117  0.88412199  1
  O  O856  1  0.59884451  0.62205255  0.38061099  1
  O  O857  1  0.60488089  0.63050952  0.88348955  1
  O  O858  1  0.66372850  0.01956513  0.11698030  1
  O  O859  1  0.95364275  0.12468681  0.64783588  1
  O  O860  1  0.16110928  0.22630888  0.13957017  1
  O  O861  1  0.16026113  0.22665594  0.64081594  1
  O  O862  1  0.16401948  0.72679093  0.14004481  1
  O  O863  1  0.16030540  0.72703609  0.64023991  1
  O  O864  1  0.09821608  0.12431869  0.36933005  1
  O  O865  1  0.09594333  0.12428971  0.86949522  1
  O  O866  1  0.09829459  0.62590987  0.36960929  1
  O  O867  1  0.09582821  0.62594042  0.86967986  1
  O  O868  1  0.83794962  0.27381500  0.35929291  1
  O  O869  1  0.83623829  0.27344668  0.85872582  1
  O  O870  1  0.66404803  0.72879374  0.11562187  1
  O  O871  1  0.66474761  0.72213700  0.60925795  1
  O  O872  1  0.33248714  0.27292602  0.38595579  1
  O  O873  1  0.83728824  0.27336541  0.85947098  1
  O  O874  1  0.83694212  0.77308284  0.36190897  1
  O  O875  1  0.83755112  0.77352329  0.86138854  1
  O  O876  1  0.83666969  0.47584102  0.35988036  1
  O  O877  1  0.83649543  0.47662503  0.85863207  1
  O  O878  1  0.83752683  0.97625462  0.36199063  1
  O  O879  1  0.83790282  0.97687577  0.86090311  1
  O  O880  1  0.16125577  0.02329411  0.64015139  1
  O  O881  1  0.16086256  0.52342490  0.14011142  1
  O  O882  1  0.16055597  0.52345167  0.64117661  1
  O  O883  1  0.66687312  0.22474126  0.11083548  1
  O  O884  1  0.65872896  0.23204143  0.60886842  1
  O  O885  1  0.66372672  0.73043173  0.11697704  1
  O  O886  1  0.66354872  0.72568662  0.60835263  1
  O  O887  1  0.33366658  0.27275241  0.38398766  1
  O  O888  1  0.33303223  0.27496218  0.89606122  1
  O  O889  1  0.33594205  0.77452049  0.38856683  1
  O  O890  1  0.45520766  0.62528506  0.60162447  1
  O  O891  1  0.54275138  0.37626823  0.39904024  1
  O  O892  1  0.54584880  0.37799493  0.90586635  1
  O  O893  1  0.54346802  0.87400383  0.39814466  1
  O  O894  1  0.54479217  0.87471538  0.89837550  1
  O  O895  1  0.59844625  0.12371566  0.37724725  1
  O  O896  1  0.60612641  0.11619361  0.88370017  1
  O  O897  1  0.59871245  0.62559056  0.38088740  1
  O  O898  1  0.60017230  0.62706346  0.88115387  1
  O  O899  1  0.66389576  0.02014536  0.11616992  1
  O  O900  1  0.54463684  0.37565439  0.90789740  1
  O  O901  1  0.54506744  0.87391114  0.40206243  1
  O  O902  1  0.54544142  0.87460114  0.89908718  1
  O  O903  1  0.59911781  0.12726181  0.37960226  1
  O  O904  1  0.54162442  0.37534082  0.39731375  1
  O  O905  1  0.54551629  0.37419159  0.90644435  1
  O  O906  1  0.54379970  0.87655044  0.39927773  1
  O  O907  1  0.54521188  0.87605432  0.89858144  1
  O  O908  1  0.54544133  0.87540016  0.89908772  1
  O  O909  1  0.59895209  0.12942697  0.38102847  1
  O  O910  1  0.60575759  0.11717702  0.88442352  1
  O  O911  1  0.59911859  0.62274082  0.37960312  1
  O  O912  1  0.60640505  0.63427988  0.88438532  1
  O  O913  1  0.66370168  0.02061657  0.11736542  1
  O  O914  1  0.66588942  0.03033326  0.60931021  1
  O  O915  1  0.66709628  0.52642669  0.11034280  1
  O  O916  1  0.66123188  0.51942715  0.60663935  1
  O  O917  1  0.16138983  0.22628502  0.13937107  1
  O  O918  1  0.33676024  0.77361139  0.89038980  1
  O  O919  1  0.33237666  0.47723990  0.38473012  1
  O  O920  1  0.33014625  0.47539837  0.89871095  1
  O  O921  1  0.33626147  0.97682848  0.38796583  1
  O  O922  1  0.33677685  0.97692848  0.89036368  1
  O  O923  1  0.95451729  0.12357900  0.14904045  1
  O  O924  1  0.95256532  0.12487081  0.64826939  1
  O  O925  1  0.95465551  0.62684643  0.14888757  1
  O  O926  1  0.95237338  0.62511900  0.64835534  1
  O  O927  1  0.45747093  0.12431746  0.10159834  1
  O  O928  1  0.66355117  0.02430647  0.60835560  1
  O  O929  1  0.66687418  0.52525555  0.11083911  1
  O  O930  1  0.65872684  0.51795162  0.60886821  1
  O  O931  1  0.16086380  0.22657595  0.14010890  1
  O  O932  1  0.16055705  0.22654984  0.64117495  1
  O  O933  1  0.16354033  0.72689868  0.13972804  1
  O  O934  1  0.16125467  0.72670763  0.64014830  1
  O  O935  1  0.09829598  0.12408560  0.36960860  1
  O  O936  1  0.09582851  0.12405552  0.86967976  1
  O  O937  1  0.09821457  0.62567566  0.36933024  1
  O  O938  1  0.66576698  0.52303445  0.60395263  1
  O  O939  1  0.16189587  0.22625746  0.13918043  1
  O  O940  1  0.16069249  0.22691479  0.64052207  1
  O  O941  1  0.16427911  0.72667758  0.14009214  1
  O  O942  1  0.16076166  0.72707063  0.64041621  1
  O  O943  1  0.09814790  0.12487171  0.36891082  1
  O  O944  1  0.09672349  0.12475303  0.86917983  1
  O  O945  1  0.09878777  0.62573272  0.36983388  1
  O  O946  1  0.09607359  0.62589758  0.86970757  1
  O  O947  1  0.83575900  0.27407641  0.36014420  1
  O  O948  1  0.16230183  0.22632029  0.13893145  1
  O  O949  1  0.16126957  0.22695638  0.64026226  1
  O  O950  1  0.16439952  0.72647497  0.14012862  1
  O  O951  1  0.16026106  0.52334502  0.64081904  1
  O  O952  1  0.33364439  0.27618972  0.38997638  1
  O  O953  1  0.32949893  0.27620301  0.89877885  1
  O  O954  1  0.33595178  0.77163559  0.38920132  1
  O  O955  1  0.33617838  0.77336296  0.89013843  1
  O  O956  1  0.33610418  0.47985481  0.38383072  1
  O  O957  1  0.33643752  0.77283916  0.89033296  1
  O  O958  1  0.33430754  0.47769928  0.38404373  1
  O  O959  1  0.33596615  0.47582132  0.89311609  1
  O  O960  1  0.83685179  0.77325008  0.85994433  1
  O  O961  1  0.83550255  0.47629034  0.35994780  1
  O  O962  1  0.33639669  0.97675431  0.89055734  1
  O  O963  1  0.95550776  0.12401287  0.14924726  1
  O  O964  1  0.95362413  0.12463295  0.64793031  1
  O  O965  1  0.95455922  0.62563387  0.14792896  1
  O  O966  1  0.95461765  0.62576879  0.64743134  1
  O  O967  1  0.45724860  0.12373180  0.10095934  1
  O  O968  1  0.45415112  0.12200527  0.59413307  1
  O  O969  1  0.45653248  0.62599555  0.10185630  1
  O  O970  1  0.39873567  0.87285823  0.61871590  1
  O  O971  1  0.16439999  0.02352574  0.14012824  1
  O  O972  1  0.95484802  0.62680514  0.14926183  1
  O  O973  1  0.95319243  0.62551905  0.64804621  1
  O  O974  1  0.45712813  0.12442469  0.10137859  1
  O  O975  1  0.45370583  0.12551062  0.59997587  1
  O  O976  1  0.45752262  0.62656441  0.10111883  1
  O  O977  1  0.45369526  0.62896318  0.59431577  1
  O  O978  1  0.54532861  0.87591480  0.89885285  1
  O  O979  1  0.59884474  0.12795287  0.38061089  1
  O  O980  1  0.60488116  0.11949715  0.88348860  1
  O  O981  1  0.59896935  0.62481742  0.37854759  1
  O  O982  1  0.60656497  0.63454375  0.88412207  1
  O  O983  1  0.66404944  0.02120233  0.11562230  1
  O  O984  1  0.66474852  0.02785756  0.60925981  1
  O  O985  1  0.66699798  0.52672810  0.11030889  1
  O  O986  1  0.66422917  0.02163315  0.11357843  1
  O  O987  1  0.66380320  0.02596357  0.60925776  1
  O  O988  1  0.66679588  0.52669447  0.11035690  1
  O  O989  1  0.66859446  0.52525767  0.60235774  1
  O  O990  1  0.40323462  0.37499838  0.12380623  1
  O  O991  1  0.39140611  0.37499743  0.61237969  1
  O  O992  1  0.40183212  0.87499502  0.11911945  1
  O  O993  1  0.39770189  0.87499623  0.61911417  1
  O  O994  1  0.16402225  0.02320870  0.14004915  1
  O  O995  1  0.16030600  0.02296524  0.64024320  1
  O  O996  1  0.16110868  0.52369142  0.13957531  1
  O  O997  1  0.04549930  0.87499912  0.85122923  1
